***** HSPICE -- J-2014.09-2 64-BIT (Oct 22 2014) win64 ******
 Input File: adder_test.sp
 lic:
 lic: FLEXlm: v10.9.8
 lic: USER:   渣渣基            HOSTNAME: DESKTOP-NPIU9RN
 lic: HOSTID: "f430b9ae4e60 005056c00001 005056c00008 5413792f7072 00ff4a66f477 00ffbbf96e68 00ffd5f
 lic: Using FLEXlm license file:
 lic: 27000@DESKTOP-NPIU9RN
 lic: Checkout 1 hspice
 lic: License/Maintenance for hspice will expire on 30-dec-2030/2019.2019
 lic: 1(in_use)/99(total) FLOATING license(s) on SERVER 27000@DESKTOP-NPIU9RN
 lic:
 init: begin read circuit files,  cpu clock=  9.90E-02
       option search = C:\synopsys\Hspice_J-2014.09-2\parts\behave\
       option search = C:\synopsys\Hspice_J-2014.09-2\parts\behave\
       option search = C:\synopsys\Hspice_J-2014.09-2\parts\AD\
       option search = C:\synopsys\Hspice_J-2014.09-2\parts\XILINX\
       option search = C:\synopsys\Hspice_J-2014.09-2\parts\TLINE\
       option search = C:\synopsys\Hspice_J-2014.09-2\parts\TI\
       option search = C:\synopsys\Hspice_J-2014.09-2\parts\SIGNET\
       option search = C:\synopsys\Hspice_J-2014.09-2\parts\PCI\
       option search = C:\synopsys\Hspice_J-2014.09-2\parts\LIN_TECH\
       option search = C:\synopsys\Hspice_J-2014.09-2\parts\PET\
       option search = C:\synopsys\Hspice_J-2014.09-2\parts\DI0\
       option search = C:\synopsys\Hspice_J-2014.09-2\parts\COMLINE\
       option search = C:\synopsys\Hspice_J-2014.09-2\parts\BURR_BRM\
       option search = C:\synopsys\Hspice_J-2014.09-2\parts\BJT\
       option search = C:\synopsys\Hspice_J-2014.09-2\parts\behave\
       option search = C:\synopsys\Hspice_J-2014.09-2\parts\AD\
       option runlvl
       option acct
       option list
       option post
 init: end read circuit files,  cpu clock=  1.06E-01 peak memory=        41 mb
 init: begin check errors,  cpu clock=  1.06E-01
 init: end check errors,  cpu clock=  4.46E-01 peak memory=        68 mb
 init: begin setup matrix, pivot=     0 cpu clock=  4.46E-01
       establish matrix -- done,  cpu clock=  4.52E-01 peak memory=        68 mb
       re-order matrix -- done,  cpu clock=  5.43E-01 peak memory=        74 mb
 init: end setup matrix,  cpu clock=  5.62E-01 peak memory=        77 mb
 dcop: begin dcop,  cpu clock=  5.76E-01
 dcop: end dcop,  cpu clock=  8.72E-01 peak memory=        78 mb  tot_iter=      24
 output: adder_test.tr0
 sweep: tran tran0    begin, stop_t=  2.50E-08 #sweeps= 251 cpu clock=  8.76E-01
 tran: time= 2.5010E-09 tot_iter=     377 conv_iter=      67 cpu clock= 3.17E+00
 tran: time= 5.1134E-09 tot_iter=    1473 conv_iter=     269 cpu clock= 9.05E+00
 tran: time= 7.5010E-09 tot_iter=    1923 conv_iter=     364 cpu clock= 1.13E+01
 tran: time= 1.0217E-08 tot_iter=    2906 conv_iter=     538 cpu clock= 1.66E+01
 tran: time= 1.2500E-08 tot_iter=    3694 conv_iter=     681 cpu clock= 2.09E+01
 tran: time= 1.5218E-08 tot_iter=    4788 conv_iter=     892 cpu clock= 2.66E+01
 tran: time= 1.7500E-08 tot_iter=    5243 conv_iter=     985 cpu clock= 2.89E+01
 tran: time= 2.0226E-08 tot_iter=    6242 conv_iter=    1158 cpu clock= 3.43E+01
 tran: time= 2.2884E-08 tot_iter=    7014 conv_iter=    1300 cpu clock= 3.89E+01
 tran: time= 2.5000E-08 tot_iter=    7020 conv_iter=    1302 cpu clock= 3.90E+01
 sweep: tran tran0    end,  cpu clock=  3.90E+01 peak memory=        78 mb
>info:         ***** hspice job concluded
 lic: Release hspice token(s)
