 ****** HSPICE -- J-2014.09-2 64-BIT (Oct 22 2014) win64 ******                 
  Copyright (C) 2014 Synopsys, Inc. All Rights Reserved.                        
  Unpublished-rights reserved under US copyright laws.
  This program is protected by law and is subject to the
  terms and conditions of the license agreement from Synopsys.
  Use of this program is your acceptance to be bound by the
  license agreement. HSPICE is the trademark of Synopsys, Inc.
  Input File: adder_test.sp                                                     
  Command line options: -mt 3 -i adder_test.sp -o adder_test.lis
  lic:  
  lic: FLEXlm: v10.9.8 
  lic: USER:   渣渣基            HOSTNAME: DESKTOP-NPIU9RN 
  lic: HOSTID: "f430b9ae4e60 005056c00001 005056c00008 5413792f7072 00ff4a66f477
  00ffbbf96e68 00ffd5f
  lic: Using FLEXlm license file: 
  lic: 27000@DESKTOP-NPIU9RN 
  lic: Checkout 1 hspice 
  lic: License/Maintenance for hspice will expire on 30-dec-2030/2019.2019 
  lic: 1(in_use)/99(total) FLOATING license(s) on SERVER 27000@DESKTOP-NPIU9RN 
  lic:   
 Init: read install configuration file: C:\synopsys\Hspice_J-2014.09-2\meta.cfg
  **warning** (../PTM-MG/modelfiles\../modelfiles/lstp/7nfet.pm:4) Model nfet device geometries will not be checked against the limits set by lmin, lmax, nfinmin and nfinmax. To enable this check, add a period(.) to the model name(i.e. enable model selector).
  **info**  the obsolete option acct is ignored
 scientific notation:
 a=10**-18  f=10**-15  p=10**-12  n=10**-9  u=10**-6
 m=10**-3   k=10**3    x=10**6    g=10**9 
1****** HSPICE -- J-2014.09-2 64-BIT (Oct 22 2014) win64 ******                 
 ******  
 adder_test

 ****** circuit name directory
 circuit number to circuit name directory
   number circuitname                     definition         multiplier
        0 main circuit
        1 xinv_size_8_0.                  inv_size_8         1.00 
        2 xinv_size_8_1.                  inv_size_8         1.00 
        3 xinv_size_8_2.                  inv_size_8         1.00 
        4 xinv_size_8_3.                  inv_size_8         1.00 
        5 xinv_size_8_4.                  inv_size_8         1.00 
        6 xinv_size_8_5.                  inv_size_8         1.00 
        7 xinv_size_8_6.                  inv_size_8         1.00 
        8 xinv_size_8_7.                  inv_size_8         1.00 
        9 xinv_size_8_8.                  inv_size_8         1.00 
       10 xinv_size_8_9.                  inv_size_8         1.00 
       11 xinv_size_8_10.                 inv_size_8         1.00 
       12 xinv_size_8_11.                 inv_size_8         1.00 
       13 xinv_size_8_12.                 inv_size_8         1.00 
       14 xinv_size_8_13.                 inv_size_8         1.00 
       15 xinv_size_8_14.                 inv_size_8         1.00 
       16 xinv_size_8_15.                 inv_size_8         1.00 
       17 xinv_size_8_16.                 inv_size_8         1.00 
       18 xinv_size_8_17.                 inv_size_8         1.00 
       19 xinv_size_8_18.                 inv_size_8         1.00 
       20 xinv_size_8_19.                 inv_size_8         1.00 
       21 xinv_size_8_20.                 inv_size_8         1.00 
       22 xinv_size_8_21.                 inv_size_8         1.00 
       23 xinv_size_8_22.                 inv_size_8         1.00 
       24 xinv_size_8_23.                 inv_size_8         1.00 
       25 xinv_size_8_24.                 inv_size_8         1.00 
       26 xinv_size_8_25.                 inv_size_8         1.00 
       27 xinv_size_8_26.                 inv_size_8         1.00 
       28 xinv_size_8_27.                 inv_size_8         1.00 
       29 xinv_size_8_28.                 inv_size_8         1.00 
       30 xinv_size_8_29.                 inv_size_8         1.00 
       31 xinv_size_8_30.                 inv_size_8         1.00 
       32 xinv_size_8_31.                 inv_size_8         1.00 
       33 xinv_size_8_32.                 inv_size_8         1.00 
       34 xadder_32_app.                  adder_32_app       1.00 
       35 xinv_size_8_0.xpfet.            pfet               1.00 
       36 xinv_size_8_0.xnfet.            nfet               1.00 
       37 xinv_size_8_1.xpfet.            pfet               1.00 
       38 xinv_size_8_1.xnfet.            nfet               1.00 
       39 xinv_size_8_2.xpfet.            pfet               1.00 
       40 xinv_size_8_2.xnfet.            nfet               1.00 
       41 xinv_size_8_3.xpfet.            pfet               1.00 
       42 xinv_size_8_3.xnfet.            nfet               1.00 
       43 xinv_size_8_4.xpfet.            pfet               1.00 
       44 xinv_size_8_4.xnfet.            nfet               1.00 
       45 xinv_size_8_5.xpfet.            pfet               1.00 
       46 xinv_size_8_5.xnfet.            nfet               1.00 
       47 xinv_size_8_6.xpfet.            pfet               1.00 
       48 xinv_size_8_6.xnfet.            nfet               1.00 
       49 xinv_size_8_7.xpfet.            pfet               1.00 
       50 xinv_size_8_7.xnfet.            nfet               1.00 
       51 xinv_size_8_8.xpfet.            pfet               1.00 
       52 xinv_size_8_8.xnfet.            nfet               1.00 
       53 xinv_size_8_9.xpfet.            pfet               1.00 
       54 xinv_size_8_9.xnfet.            nfet               1.00 
       55 xinv_size_8_10.xpfet.           pfet               1.00 
       56 xinv_size_8_10.xnfet.           nfet               1.00 
       57 xinv_size_8_11.xpfet.           pfet               1.00 
       58 xinv_size_8_11.xnfet.           nfet               1.00 
       59 xinv_size_8_12.xpfet.           pfet               1.00 
       60 xinv_size_8_12.xnfet.           nfet               1.00 
       61 xinv_size_8_13.xpfet.           pfet               1.00 
       62 xinv_size_8_13.xnfet.           nfet               1.00 
       63 xinv_size_8_14.xpfet.           pfet               1.00 
       64 xinv_size_8_14.xnfet.           nfet               1.00 
       65 xinv_size_8_15.xpfet.           pfet               1.00 
       66 xinv_size_8_15.xnfet.           nfet               1.00 
       67 xinv_size_8_16.xpfet.           pfet               1.00 
       68 xinv_size_8_16.xnfet.           nfet               1.00 
       69 xinv_size_8_17.xpfet.           pfet               1.00 
       70 xinv_size_8_17.xnfet.           nfet               1.00 
       71 xinv_size_8_18.xpfet.           pfet               1.00 
       72 xinv_size_8_18.xnfet.           nfet               1.00 
       73 xinv_size_8_19.xpfet.           pfet               1.00 
       74 xinv_size_8_19.xnfet.           nfet               1.00 
       75 xinv_size_8_20.xpfet.           pfet               1.00 
       76 xinv_size_8_20.xnfet.           nfet               1.00 
       77 xinv_size_8_21.xpfet.           pfet               1.00 
       78 xinv_size_8_21.xnfet.           nfet               1.00 
       79 xinv_size_8_22.xpfet.           pfet               1.00 
       80 xinv_size_8_22.xnfet.           nfet               1.00 
       81 xinv_size_8_23.xpfet.           pfet               1.00 
       82 xinv_size_8_23.xnfet.           nfet               1.00 
       83 xinv_size_8_24.xpfet.           pfet               1.00 
       84 xinv_size_8_24.xnfet.           nfet               1.00 
       85 xinv_size_8_25.xpfet.           pfet               1.00 
       86 xinv_size_8_25.xnfet.           nfet               1.00 
       87 xinv_size_8_26.xpfet.           pfet               1.00 
       88 xinv_size_8_26.xnfet.           nfet               1.00 
       89 xinv_size_8_27.xpfet.           pfet               1.00 
       90 xinv_size_8_27.xnfet.           nfet               1.00 
       91 xinv_size_8_28.xpfet.           pfet               1.00 
       92 xinv_size_8_28.xnfet.           nfet               1.00 
       93 xinv_size_8_29.xpfet.           pfet               1.00 
       94 xinv_size_8_29.xnfet.           nfet               1.00 
       95 xinv_size_8_30.xpfet.           pfet               1.00 
       96 xinv_size_8_30.xnfet.           nfet               1.00 
       97 xinv_size_8_31.xpfet.           pfet               1.00 
       98 xinv_size_8_31.xnfet.           nfet               1.00 
       99 xinv_size_8_32.xpfet.           pfet               1.00 
      100 xinv_size_8_32.xnfet.           nfet               1.00 
      101 xadder_32_app.xcla_4_app_1.     cla_4_app          1.00 
      102 xadder_32_app.xcla_4_app_2.     cla_4_app          1.00 
      103 xadder_32_app.xcla_4_app_3.     cla_4_app          1.00 
      104 xadder_32_app.xcla_4_app_4.     cla_4_app          1.00 
      105 xadder_32_app.xcla_4_app_5.     cla_4_app          1.00 
      106 xadder_32_app.xcla_4_app_6.     cla_4_app          1.00 
      107 xadder_32_app.xcla_4_app_7.     cla_4_app          1.00 
      108 xadder_32_app.xcla_4_app_8.     cla_4_app          1.00 
      109 xadder_32_app.xcla_4_app_1.xxor_tg_p0.
                                            xor_tg             1.00 
      110 xadder_32_app.xcla_4_app_1.xxor_tg_p1.
                                            xor_tg             1.00 
      111 xadder_32_app.xcla_4_app_1.xxor_tg_p2.
                                            xor_tg             1.00 
      112 xadder_32_app.xcla_4_app_1.xxor_tg_p3.
                                            xor_tg             1.00 
      113 xadder_32_app.xcla_4_app_1.xand2_r_g0.
                                            and2_r             1.00 
      114 xadder_32_app.xcla_4_app_1.xand2_r_g1.
                                            and2_r             1.00 
      115 xadder_32_app.xcla_4_app_1.xand2_r_g2.
                                            and2_r             1.00 
      116 xadder_32_app.xcla_4_app_1.xand2_r_g3.
                                            and2_r             1.00 
      117 xadder_32_app.xcla_4_app_1.xand2_r_c1.
                                            and2_r             1.00 
      118 xadder_32_app.xcla_4_app_1.xor2_r_c1.
                                            or2_r              1.00 
      119 xadder_32_app.xcla_4_app_1.xand3_r_c2.
                                            and3_r             1.00 
      120 xadder_32_app.xcla_4_app_1.xand2_r_c2.
                                            and2_r             1.00 
      121 xadder_32_app.xcla_4_app_1.xor3_r_c2.
                                            or3_r              1.00 
      122 xadder_32_app.xcla_4_app_1.xand4_r_c3.
                                            and4_r             1.00 
      123 xadder_32_app.xcla_4_app_1.xand3_r_c3.
                                            and3_r             1.00 
      124 xadder_32_app.xcla_4_app_1.xand2_r_c3.
                                            and2_r             1.00 
      125 xadder_32_app.xcla_4_app_1.xor4_r_c3.
                                            or4_r              1.00 
      126 xadder_32_app.xcla_4_app_1.xand5_rg_c4.
                                            and5_rg            1.00 
      127 xadder_32_app.xcla_4_app_1.xand4_r_c4.
                                            and4_r             1.00 
      128 xadder_32_app.xcla_4_app_1.xand3_r_c4.
                                            and3_r             1.00 
      129 xadder_32_app.xcla_4_app_1.xand2_r_c4.
                                            and2_r             1.00 
      130 xadder_32_app.xcla_4_app_1.xor4_r_c4.
                                            or4_r              1.00 
      131 xadder_32_app.xcla_4_app_1.xor2_rg_c4.
                                            or2_rg             1.00 
      132 xadder_32_app.xcla_4_app_1.xmux2to1.
                                            mux2to1            1.00 
      133 xadder_32_app.xcla_4_app_1.xxor_tg_s0.
                                            xor_tg             1.00 
      134 xadder_32_app.xcla_4_app_1.xxor_tg_s1.
                                            xor_tg             1.00 
      135 xadder_32_app.xcla_4_app_1.xxor_tg_s2.
                                            xor_tg             1.00 
      136 xadder_32_app.xcla_4_app_1.xxor_tg_s3.
                                            xor_tg             1.00 
      137 xadder_32_app.xcla_4_app_2.xxor_tg_p0.
                                            xor_tg             1.00 
      138 xadder_32_app.xcla_4_app_2.xxor_tg_p1.
                                            xor_tg             1.00 
      139 xadder_32_app.xcla_4_app_2.xxor_tg_p2.
                                            xor_tg             1.00 
      140 xadder_32_app.xcla_4_app_2.xxor_tg_p3.
                                            xor_tg             1.00 
      141 xadder_32_app.xcla_4_app_2.xand2_r_g0.
                                            and2_r             1.00 
      142 xadder_32_app.xcla_4_app_2.xand2_r_g1.
                                            and2_r             1.00 
      143 xadder_32_app.xcla_4_app_2.xand2_r_g2.
                                            and2_r             1.00 
      144 xadder_32_app.xcla_4_app_2.xand2_r_g3.
                                            and2_r             1.00 
      145 xadder_32_app.xcla_4_app_2.xand2_r_c1.
                                            and2_r             1.00 
      146 xadder_32_app.xcla_4_app_2.xor2_r_c1.
                                            or2_r              1.00 
      147 xadder_32_app.xcla_4_app_2.xand3_r_c2.
                                            and3_r             1.00 
      148 xadder_32_app.xcla_4_app_2.xand2_r_c2.
                                            and2_r             1.00 
      149 xadder_32_app.xcla_4_app_2.xor3_r_c2.
                                            or3_r              1.00 
      150 xadder_32_app.xcla_4_app_2.xand4_r_c3.
                                            and4_r             1.00 
      151 xadder_32_app.xcla_4_app_2.xand3_r_c3.
                                            and3_r             1.00 
      152 xadder_32_app.xcla_4_app_2.xand2_r_c3.
                                            and2_r             1.00 
      153 xadder_32_app.xcla_4_app_2.xor4_r_c3.
                                            or4_r              1.00 
      154 xadder_32_app.xcla_4_app_2.xand5_rg_c4.
                                            and5_rg            1.00 
      155 xadder_32_app.xcla_4_app_2.xand4_r_c4.
                                            and4_r             1.00 
      156 xadder_32_app.xcla_4_app_2.xand3_r_c4.
                                            and3_r             1.00 
      157 xadder_32_app.xcla_4_app_2.xand2_r_c4.
                                            and2_r             1.00 
      158 xadder_32_app.xcla_4_app_2.xor4_r_c4.
                                            or4_r              1.00 
      159 xadder_32_app.xcla_4_app_2.xor2_rg_c4.
                                            or2_rg             1.00 
      160 xadder_32_app.xcla_4_app_2.xmux2to1.
                                            mux2to1            1.00 
      161 xadder_32_app.xcla_4_app_2.xxor_tg_s0.
                                            xor_tg             1.00 
      162 xadder_32_app.xcla_4_app_2.xxor_tg_s1.
                                            xor_tg             1.00 
      163 xadder_32_app.xcla_4_app_2.xxor_tg_s2.
                                            xor_tg             1.00 
      164 xadder_32_app.xcla_4_app_2.xxor_tg_s3.
                                            xor_tg             1.00 
      165 xadder_32_app.xcla_4_app_3.xxor_tg_p0.
                                            xor_tg             1.00 
      166 xadder_32_app.xcla_4_app_3.xxor_tg_p1.
                                            xor_tg             1.00 
      167 xadder_32_app.xcla_4_app_3.xxor_tg_p2.
                                            xor_tg             1.00 
      168 xadder_32_app.xcla_4_app_3.xxor_tg_p3.
                                            xor_tg             1.00 
      169 xadder_32_app.xcla_4_app_3.xand2_r_g0.
                                            and2_r             1.00 
      170 xadder_32_app.xcla_4_app_3.xand2_r_g1.
                                            and2_r             1.00 
      171 xadder_32_app.xcla_4_app_3.xand2_r_g2.
                                            and2_r             1.00 
      172 xadder_32_app.xcla_4_app_3.xand2_r_g3.
                                            and2_r             1.00 
      173 xadder_32_app.xcla_4_app_3.xand2_r_c1.
                                            and2_r             1.00 
      174 xadder_32_app.xcla_4_app_3.xor2_r_c1.
                                            or2_r              1.00 
      175 xadder_32_app.xcla_4_app_3.xand3_r_c2.
                                            and3_r             1.00 
      176 xadder_32_app.xcla_4_app_3.xand2_r_c2.
                                            and2_r             1.00 
      177 xadder_32_app.xcla_4_app_3.xor3_r_c2.
                                            or3_r              1.00 
      178 xadder_32_app.xcla_4_app_3.xand4_r_c3.
                                            and4_r             1.00 
      179 xadder_32_app.xcla_4_app_3.xand3_r_c3.
                                            and3_r             1.00 
      180 xadder_32_app.xcla_4_app_3.xand2_r_c3.
                                            and2_r             1.00 
      181 xadder_32_app.xcla_4_app_3.xor4_r_c3.
                                            or4_r              1.00 
      182 xadder_32_app.xcla_4_app_3.xand5_rg_c4.
                                            and5_rg            1.00 
      183 xadder_32_app.xcla_4_app_3.xand4_r_c4.
                                            and4_r             1.00 
      184 xadder_32_app.xcla_4_app_3.xand3_r_c4.
                                            and3_r             1.00 
      185 xadder_32_app.xcla_4_app_3.xand2_r_c4.
                                            and2_r             1.00 
      186 xadder_32_app.xcla_4_app_3.xor4_r_c4.
                                            or4_r              1.00 
      187 xadder_32_app.xcla_4_app_3.xor2_rg_c4.
                                            or2_rg             1.00 
      188 xadder_32_app.xcla_4_app_3.xmux2to1.
                                            mux2to1            1.00 
      189 xadder_32_app.xcla_4_app_3.xxor_tg_s0.
                                            xor_tg             1.00 
      190 xadder_32_app.xcla_4_app_3.xxor_tg_s1.
                                            xor_tg             1.00 
      191 xadder_32_app.xcla_4_app_3.xxor_tg_s2.
                                            xor_tg             1.00 
      192 xadder_32_app.xcla_4_app_3.xxor_tg_s3.
                                            xor_tg             1.00 
      193 xadder_32_app.xcla_4_app_4.xxor_tg_p0.
                                            xor_tg             1.00 
      194 xadder_32_app.xcla_4_app_4.xxor_tg_p1.
                                            xor_tg             1.00 
      195 xadder_32_app.xcla_4_app_4.xxor_tg_p2.
                                            xor_tg             1.00 
      196 xadder_32_app.xcla_4_app_4.xxor_tg_p3.
                                            xor_tg             1.00 
      197 xadder_32_app.xcla_4_app_4.xand2_r_g0.
                                            and2_r             1.00 
      198 xadder_32_app.xcla_4_app_4.xand2_r_g1.
                                            and2_r             1.00 
      199 xadder_32_app.xcla_4_app_4.xand2_r_g2.
                                            and2_r             1.00 
      200 xadder_32_app.xcla_4_app_4.xand2_r_g3.
                                            and2_r             1.00 
      201 xadder_32_app.xcla_4_app_4.xand2_r_c1.
                                            and2_r             1.00 
      202 xadder_32_app.xcla_4_app_4.xor2_r_c1.
                                            or2_r              1.00 
      203 xadder_32_app.xcla_4_app_4.xand3_r_c2.
                                            and3_r             1.00 
      204 xadder_32_app.xcla_4_app_4.xand2_r_c2.
                                            and2_r             1.00 
      205 xadder_32_app.xcla_4_app_4.xor3_r_c2.
                                            or3_r              1.00 
      206 xadder_32_app.xcla_4_app_4.xand4_r_c3.
                                            and4_r             1.00 
      207 xadder_32_app.xcla_4_app_4.xand3_r_c3.
                                            and3_r             1.00 
      208 xadder_32_app.xcla_4_app_4.xand2_r_c3.
                                            and2_r             1.00 
      209 xadder_32_app.xcla_4_app_4.xor4_r_c3.
                                            or4_r              1.00 
      210 xadder_32_app.xcla_4_app_4.xand5_rg_c4.
                                            and5_rg            1.00 
      211 xadder_32_app.xcla_4_app_4.xand4_r_c4.
                                            and4_r             1.00 
      212 xadder_32_app.xcla_4_app_4.xand3_r_c4.
                                            and3_r             1.00 
      213 xadder_32_app.xcla_4_app_4.xand2_r_c4.
                                            and2_r             1.00 
      214 xadder_32_app.xcla_4_app_4.xor4_r_c4.
                                            or4_r              1.00 
      215 xadder_32_app.xcla_4_app_4.xor2_rg_c4.
                                            or2_rg             1.00 
      216 xadder_32_app.xcla_4_app_4.xmux2to1.
                                            mux2to1            1.00 
      217 xadder_32_app.xcla_4_app_4.xxor_tg_s0.
                                            xor_tg             1.00 
      218 xadder_32_app.xcla_4_app_4.xxor_tg_s1.
                                            xor_tg             1.00 
      219 xadder_32_app.xcla_4_app_4.xxor_tg_s2.
                                            xor_tg             1.00 
      220 xadder_32_app.xcla_4_app_4.xxor_tg_s3.
                                            xor_tg             1.00 
      221 xadder_32_app.xcla_4_app_5.xxor_tg_p0.
                                            xor_tg             1.00 
      222 xadder_32_app.xcla_4_app_5.xxor_tg_p1.
                                            xor_tg             1.00 
      223 xadder_32_app.xcla_4_app_5.xxor_tg_p2.
                                            xor_tg             1.00 
      224 xadder_32_app.xcla_4_app_5.xxor_tg_p3.
                                            xor_tg             1.00 
      225 xadder_32_app.xcla_4_app_5.xand2_r_g0.
                                            and2_r             1.00 
      226 xadder_32_app.xcla_4_app_5.xand2_r_g1.
                                            and2_r             1.00 
      227 xadder_32_app.xcla_4_app_5.xand2_r_g2.
                                            and2_r             1.00 
      228 xadder_32_app.xcla_4_app_5.xand2_r_g3.
                                            and2_r             1.00 
      229 xadder_32_app.xcla_4_app_5.xand2_r_c1.
                                            and2_r             1.00 
      230 xadder_32_app.xcla_4_app_5.xor2_r_c1.
                                            or2_r              1.00 
      231 xadder_32_app.xcla_4_app_5.xand3_r_c2.
                                            and3_r             1.00 
      232 xadder_32_app.xcla_4_app_5.xand2_r_c2.
                                            and2_r             1.00 
      233 xadder_32_app.xcla_4_app_5.xor3_r_c2.
                                            or3_r              1.00 
      234 xadder_32_app.xcla_4_app_5.xand4_r_c3.
                                            and4_r             1.00 
      235 xadder_32_app.xcla_4_app_5.xand3_r_c3.
                                            and3_r             1.00 
      236 xadder_32_app.xcla_4_app_5.xand2_r_c3.
                                            and2_r             1.00 
      237 xadder_32_app.xcla_4_app_5.xor4_r_c3.
                                            or4_r              1.00 
      238 xadder_32_app.xcla_4_app_5.xand5_rg_c4.
                                            and5_rg            1.00 
      239 xadder_32_app.xcla_4_app_5.xand4_r_c4.
                                            and4_r             1.00 
      240 xadder_32_app.xcla_4_app_5.xand3_r_c4.
                                            and3_r             1.00 
      241 xadder_32_app.xcla_4_app_5.xand2_r_c4.
                                            and2_r             1.00 
      242 xadder_32_app.xcla_4_app_5.xor4_r_c4.
                                            or4_r              1.00 
      243 xadder_32_app.xcla_4_app_5.xor2_rg_c4.
                                            or2_rg             1.00 
      244 xadder_32_app.xcla_4_app_5.xmux2to1.
                                            mux2to1            1.00 
      245 xadder_32_app.xcla_4_app_5.xxor_tg_s0.
                                            xor_tg             1.00 
      246 xadder_32_app.xcla_4_app_5.xxor_tg_s1.
                                            xor_tg             1.00 
      247 xadder_32_app.xcla_4_app_5.xxor_tg_s2.
                                            xor_tg             1.00 
      248 xadder_32_app.xcla_4_app_5.xxor_tg_s3.
                                            xor_tg             1.00 
      249 xadder_32_app.xcla_4_app_6.xxor_tg_p0.
                                            xor_tg             1.00 
      250 xadder_32_app.xcla_4_app_6.xxor_tg_p1.
                                            xor_tg             1.00 
      251 xadder_32_app.xcla_4_app_6.xxor_tg_p2.
                                            xor_tg             1.00 
      252 xadder_32_app.xcla_4_app_6.xxor_tg_p3.
                                            xor_tg             1.00 
      253 xadder_32_app.xcla_4_app_6.xand2_r_g0.
                                            and2_r             1.00 
      254 xadder_32_app.xcla_4_app_6.xand2_r_g1.
                                            and2_r             1.00 
      255 xadder_32_app.xcla_4_app_6.xand2_r_g2.
                                            and2_r             1.00 
      256 xadder_32_app.xcla_4_app_6.xand2_r_g3.
                                            and2_r             1.00 
      257 xadder_32_app.xcla_4_app_6.xand2_r_c1.
                                            and2_r             1.00 
      258 xadder_32_app.xcla_4_app_6.xor2_r_c1.
                                            or2_r              1.00 
      259 xadder_32_app.xcla_4_app_6.xand3_r_c2.
                                            and3_r             1.00 
      260 xadder_32_app.xcla_4_app_6.xand2_r_c2.
                                            and2_r             1.00 
      261 xadder_32_app.xcla_4_app_6.xor3_r_c2.
                                            or3_r              1.00 
      262 xadder_32_app.xcla_4_app_6.xand4_r_c3.
                                            and4_r             1.00 
      263 xadder_32_app.xcla_4_app_6.xand3_r_c3.
                                            and3_r             1.00 
      264 xadder_32_app.xcla_4_app_6.xand2_r_c3.
                                            and2_r             1.00 
      265 xadder_32_app.xcla_4_app_6.xor4_r_c3.
                                            or4_r              1.00 
      266 xadder_32_app.xcla_4_app_6.xand5_rg_c4.
                                            and5_rg            1.00 
      267 xadder_32_app.xcla_4_app_6.xand4_r_c4.
                                            and4_r             1.00 
      268 xadder_32_app.xcla_4_app_6.xand3_r_c4.
                                            and3_r             1.00 
      269 xadder_32_app.xcla_4_app_6.xand2_r_c4.
                                            and2_r             1.00 
      270 xadder_32_app.xcla_4_app_6.xor4_r_c4.
                                            or4_r              1.00 
      271 xadder_32_app.xcla_4_app_6.xor2_rg_c4.
                                            or2_rg             1.00 
      272 xadder_32_app.xcla_4_app_6.xmux2to1.
                                            mux2to1            1.00 
      273 xadder_32_app.xcla_4_app_6.xxor_tg_s0.
                                            xor_tg             1.00 
      274 xadder_32_app.xcla_4_app_6.xxor_tg_s1.
                                            xor_tg             1.00 
      275 xadder_32_app.xcla_4_app_6.xxor_tg_s2.
                                            xor_tg             1.00 
      276 xadder_32_app.xcla_4_app_6.xxor_tg_s3.
                                            xor_tg             1.00 
      277 xadder_32_app.xcla_4_app_7.xxor_tg_p0.
                                            xor_tg             1.00 
      278 xadder_32_app.xcla_4_app_7.xxor_tg_p1.
                                            xor_tg             1.00 
      279 xadder_32_app.xcla_4_app_7.xxor_tg_p2.
                                            xor_tg             1.00 
      280 xadder_32_app.xcla_4_app_7.xxor_tg_p3.
                                            xor_tg             1.00 
      281 xadder_32_app.xcla_4_app_7.xand2_r_g0.
                                            and2_r             1.00 
      282 xadder_32_app.xcla_4_app_7.xand2_r_g1.
                                            and2_r             1.00 
      283 xadder_32_app.xcla_4_app_7.xand2_r_g2.
                                            and2_r             1.00 
      284 xadder_32_app.xcla_4_app_7.xand2_r_g3.
                                            and2_r             1.00 
      285 xadder_32_app.xcla_4_app_7.xand2_r_c1.
                                            and2_r             1.00 
      286 xadder_32_app.xcla_4_app_7.xor2_r_c1.
                                            or2_r              1.00 
      287 xadder_32_app.xcla_4_app_7.xand3_r_c2.
                                            and3_r             1.00 
      288 xadder_32_app.xcla_4_app_7.xand2_r_c2.
                                            and2_r             1.00 
      289 xadder_32_app.xcla_4_app_7.xor3_r_c2.
                                            or3_r              1.00 
      290 xadder_32_app.xcla_4_app_7.xand4_r_c3.
                                            and4_r             1.00 
      291 xadder_32_app.xcla_4_app_7.xand3_r_c3.
                                            and3_r             1.00 
      292 xadder_32_app.xcla_4_app_7.xand2_r_c3.
                                            and2_r             1.00 
      293 xadder_32_app.xcla_4_app_7.xor4_r_c3.
                                            or4_r              1.00 
      294 xadder_32_app.xcla_4_app_7.xand5_rg_c4.
                                            and5_rg            1.00 
      295 xadder_32_app.xcla_4_app_7.xand4_r_c4.
                                            and4_r             1.00 
      296 xadder_32_app.xcla_4_app_7.xand3_r_c4.
                                            and3_r             1.00 
      297 xadder_32_app.xcla_4_app_7.xand2_r_c4.
                                            and2_r             1.00 
      298 xadder_32_app.xcla_4_app_7.xor4_r_c4.
                                            or4_r              1.00 
      299 xadder_32_app.xcla_4_app_7.xor2_rg_c4.
                                            or2_rg             1.00 
      300 xadder_32_app.xcla_4_app_7.xmux2to1.
                                            mux2to1            1.00 
      301 xadder_32_app.xcla_4_app_7.xxor_tg_s0.
                                            xor_tg             1.00 
      302 xadder_32_app.xcla_4_app_7.xxor_tg_s1.
                                            xor_tg             1.00 
      303 xadder_32_app.xcla_4_app_7.xxor_tg_s2.
                                            xor_tg             1.00 
      304 xadder_32_app.xcla_4_app_7.xxor_tg_s3.
                                            xor_tg             1.00 
      305 xadder_32_app.xcla_4_app_8.xxor_tg_p0.
                                            xor_tg             1.00 
      306 xadder_32_app.xcla_4_app_8.xxor_tg_p1.
                                            xor_tg             1.00 
      307 xadder_32_app.xcla_4_app_8.xxor_tg_p2.
                                            xor_tg             1.00 
      308 xadder_32_app.xcla_4_app_8.xxor_tg_p3.
                                            xor_tg             1.00 
      309 xadder_32_app.xcla_4_app_8.xand2_r_g0.
                                            and2_r             1.00 
      310 xadder_32_app.xcla_4_app_8.xand2_r_g1.
                                            and2_r             1.00 
      311 xadder_32_app.xcla_4_app_8.xand2_r_g2.
                                            and2_r             1.00 
      312 xadder_32_app.xcla_4_app_8.xand2_r_g3.
                                            and2_r             1.00 
      313 xadder_32_app.xcla_4_app_8.xand2_r_c1.
                                            and2_r             1.00 
      314 xadder_32_app.xcla_4_app_8.xor2_r_c1.
                                            or2_r              1.00 
      315 xadder_32_app.xcla_4_app_8.xand3_r_c2.
                                            and3_r             1.00 
      316 xadder_32_app.xcla_4_app_8.xand2_r_c2.
                                            and2_r             1.00 
      317 xadder_32_app.xcla_4_app_8.xor3_r_c2.
                                            or3_r              1.00 
      318 xadder_32_app.xcla_4_app_8.xand4_r_c3.
                                            and4_r             1.00 
      319 xadder_32_app.xcla_4_app_8.xand3_r_c3.
                                            and3_r             1.00 
      320 xadder_32_app.xcla_4_app_8.xand2_r_c3.
                                            and2_r             1.00 
      321 xadder_32_app.xcla_4_app_8.xor4_r_c3.
                                            or4_r              1.00 
      322 xadder_32_app.xcla_4_app_8.xand5_rg_c4.
                                            and5_rg            1.00 
      323 xadder_32_app.xcla_4_app_8.xand4_r_c4.
                                            and4_r             1.00 
      324 xadder_32_app.xcla_4_app_8.xand3_r_c4.
                                            and3_r             1.00 
      325 xadder_32_app.xcla_4_app_8.xand2_r_c4.
                                            and2_r             1.00 
      326 xadder_32_app.xcla_4_app_8.xor4_r_c4.
                                            or4_r              1.00 
      327 xadder_32_app.xcla_4_app_8.xor2_rg_c4.
                                            or2_rg             1.00 
      328 xadder_32_app.xcla_4_app_8.xmux2to1.
                                            mux2to1            1.00 
      329 xadder_32_app.xcla_4_app_8.xxor_tg_s0.
                                            xor_tg             1.00 
      330 xadder_32_app.xcla_4_app_8.xxor_tg_s1.
                                            xor_tg             1.00 
      331 xadder_32_app.xcla_4_app_8.xxor_tg_s2.
                                            xor_tg             1.00 
      332 xadder_32_app.xcla_4_app_8.xxor_tg_s3.
                                            xor_tg             1.00 
      333 xadder_32_app.xcla_4_app_1.xxor_tg_p0.xinv_size_1.
                                            inv_size_1         1.00 
      334 xadder_32_app.xcla_4_app_1.xxor_tg_p0.xpfet_inv.
                                            pfet               1.00 
      335 xadder_32_app.xcla_4_app_1.xxor_tg_p0.xnfet_inv.
                                            nfet               1.00 
      336 xadder_32_app.xcla_4_app_1.xxor_tg_p0.xpfet_tg.
                                            pfet               1.00 
      337 xadder_32_app.xcla_4_app_1.xxor_tg_p0.xnfet_tg.
                                            nfet               1.00 
      338 xadder_32_app.xcla_4_app_1.xxor_tg_p1.xinv_size_1.
                                            inv_size_1         1.00 
      339 xadder_32_app.xcla_4_app_1.xxor_tg_p1.xpfet_inv.
                                            pfet               1.00 
      340 xadder_32_app.xcla_4_app_1.xxor_tg_p1.xnfet_inv.
                                            nfet               1.00 
      341 xadder_32_app.xcla_4_app_1.xxor_tg_p1.xpfet_tg.
                                            pfet               1.00 
      342 xadder_32_app.xcla_4_app_1.xxor_tg_p1.xnfet_tg.
                                            nfet               1.00 
      343 xadder_32_app.xcla_4_app_1.xxor_tg_p2.xinv_size_1.
                                            inv_size_1         1.00 
      344 xadder_32_app.xcla_4_app_1.xxor_tg_p2.xpfet_inv.
                                            pfet               1.00 
      345 xadder_32_app.xcla_4_app_1.xxor_tg_p2.xnfet_inv.
                                            nfet               1.00 
      346 xadder_32_app.xcla_4_app_1.xxor_tg_p2.xpfet_tg.
                                            pfet               1.00 
      347 xadder_32_app.xcla_4_app_1.xxor_tg_p2.xnfet_tg.
                                            nfet               1.00 
      348 xadder_32_app.xcla_4_app_1.xxor_tg_p3.xinv_size_1.
                                            inv_size_1         1.00 
      349 xadder_32_app.xcla_4_app_1.xxor_tg_p3.xpfet_inv.
                                            pfet               1.00 
      350 xadder_32_app.xcla_4_app_1.xxor_tg_p3.xnfet_inv.
                                            nfet               1.00 
      351 xadder_32_app.xcla_4_app_1.xxor_tg_p3.xpfet_tg.
                                            pfet               1.00 
      352 xadder_32_app.xcla_4_app_1.xxor_tg_p3.xnfet_tg.
                                            nfet               1.00 
      353 xadder_32_app.xcla_4_app_1.xand2_r_g0.xpfet_1.
                                            pfet               1.00 
      354 xadder_32_app.xcla_4_app_1.xand2_r_g0.xpfet_2.
                                            pfet               1.00 
      355 xadder_32_app.xcla_4_app_1.xand2_r_g0.xnfet_1.
                                            nfet               1.00 
      356 xadder_32_app.xcla_4_app_1.xand2_r_g0.xnfet_2.
                                            nfet               1.00 
      357 xadder_32_app.xcla_4_app_1.xand2_r_g0.xinv_size_1.
                                            inv_size_1         1.00 
      358 xadder_32_app.xcla_4_app_1.xand2_r_g1.xpfet_1.
                                            pfet               1.00 
      359 xadder_32_app.xcla_4_app_1.xand2_r_g1.xpfet_2.
                                            pfet               1.00 
      360 xadder_32_app.xcla_4_app_1.xand2_r_g1.xnfet_1.
                                            nfet               1.00 
      361 xadder_32_app.xcla_4_app_1.xand2_r_g1.xnfet_2.
                                            nfet               1.00 
      362 xadder_32_app.xcla_4_app_1.xand2_r_g1.xinv_size_1.
                                            inv_size_1         1.00 
      363 xadder_32_app.xcla_4_app_1.xand2_r_g2.xpfet_1.
                                            pfet               1.00 
      364 xadder_32_app.xcla_4_app_1.xand2_r_g2.xpfet_2.
                                            pfet               1.00 
      365 xadder_32_app.xcla_4_app_1.xand2_r_g2.xnfet_1.
                                            nfet               1.00 
      366 xadder_32_app.xcla_4_app_1.xand2_r_g2.xnfet_2.
                                            nfet               1.00 
      367 xadder_32_app.xcla_4_app_1.xand2_r_g2.xinv_size_1.
                                            inv_size_1         1.00 
      368 xadder_32_app.xcla_4_app_1.xand2_r_g3.xpfet_1.
                                            pfet               1.00 
      369 xadder_32_app.xcla_4_app_1.xand2_r_g3.xpfet_2.
                                            pfet               1.00 
      370 xadder_32_app.xcla_4_app_1.xand2_r_g3.xnfet_1.
                                            nfet               1.00 
      371 xadder_32_app.xcla_4_app_1.xand2_r_g3.xnfet_2.
                                            nfet               1.00 
      372 xadder_32_app.xcla_4_app_1.xand2_r_g3.xinv_size_1.
                                            inv_size_1         1.00 
      373 xadder_32_app.xcla_4_app_1.xand2_r_c1.xpfet_1.
                                            pfet               1.00 
      374 xadder_32_app.xcla_4_app_1.xand2_r_c1.xpfet_2.
                                            pfet               1.00 
      375 xadder_32_app.xcla_4_app_1.xand2_r_c1.xnfet_1.
                                            nfet               1.00 
      376 xadder_32_app.xcla_4_app_1.xand2_r_c1.xnfet_2.
                                            nfet               1.00 
      377 xadder_32_app.xcla_4_app_1.xand2_r_c1.xinv_size_1.
                                            inv_size_1         1.00 
      378 xadder_32_app.xcla_4_app_1.xor2_r_c1.xpfet_1.
                                            pfet               1.00 
      379 xadder_32_app.xcla_4_app_1.xor2_r_c1.xpfet_2.
                                            pfet               1.00 
      380 xadder_32_app.xcla_4_app_1.xor2_r_c1.xnfet_1.
                                            nfet               1.00 
      381 xadder_32_app.xcla_4_app_1.xor2_r_c1.xnfet_2.
                                            nfet               1.00 
      382 xadder_32_app.xcla_4_app_1.xor2_r_c1.xinv_size_1.
                                            inv_size_1         1.00 
      383 xadder_32_app.xcla_4_app_1.xand3_r_c2.xpfet_1.
                                            pfet               1.00 
      384 xadder_32_app.xcla_4_app_1.xand3_r_c2.xpfet_2.
                                            pfet               1.00 
      385 xadder_32_app.xcla_4_app_1.xand3_r_c2.xpfet_3.
                                            pfet               1.00 
      386 xadder_32_app.xcla_4_app_1.xand3_r_c2.xnfet_1.
                                            nfet               1.00 
      387 xadder_32_app.xcla_4_app_1.xand3_r_c2.xnfet_2.
                                            nfet               1.00 
      388 xadder_32_app.xcla_4_app_1.xand3_r_c2.xnfet_3.
                                            nfet               1.00 
      389 xadder_32_app.xcla_4_app_1.xand3_r_c2.xinv_size_1.
                                            inv_size_1         1.00 
      390 xadder_32_app.xcla_4_app_1.xand2_r_c2.xpfet_1.
                                            pfet               1.00 
      391 xadder_32_app.xcla_4_app_1.xand2_r_c2.xpfet_2.
                                            pfet               1.00 
      392 xadder_32_app.xcla_4_app_1.xand2_r_c2.xnfet_1.
                                            nfet               1.00 
      393 xadder_32_app.xcla_4_app_1.xand2_r_c2.xnfet_2.
                                            nfet               1.00 
      394 xadder_32_app.xcla_4_app_1.xand2_r_c2.xinv_size_1.
                                            inv_size_1         1.00 
      395 xadder_32_app.xcla_4_app_1.xor3_r_c2.xpfet_1.
                                            pfet               1.00 
      396 xadder_32_app.xcla_4_app_1.xor3_r_c2.xpfet_2.
                                            pfet               1.00 
      397 xadder_32_app.xcla_4_app_1.xor3_r_c2.xpfet_3.
                                            pfet               1.00 
      398 xadder_32_app.xcla_4_app_1.xor3_r_c2.xnfet_1.
                                            nfet               1.00 
      399 xadder_32_app.xcla_4_app_1.xor3_r_c2.xnfet_2.
                                            nfet               1.00 
      400 xadder_32_app.xcla_4_app_1.xor3_r_c2.xnfet_3.
                                            nfet               1.00 
      401 xadder_32_app.xcla_4_app_1.xor3_r_c2.xinv_size_1.
                                            inv_size_1         1.00 
      402 xadder_32_app.xcla_4_app_1.xand4_r_c3.xpfet_1.
                                            pfet               1.00 
      403 xadder_32_app.xcla_4_app_1.xand4_r_c3.xpfet_2.
                                            pfet               1.00 
      404 xadder_32_app.xcla_4_app_1.xand4_r_c3.xpfet_3.
                                            pfet               1.00 
      405 xadder_32_app.xcla_4_app_1.xand4_r_c3.xpfet_4.
                                            pfet               1.00 
      406 xadder_32_app.xcla_4_app_1.xand4_r_c3.xnfet_1.
                                            nfet               1.00 
      407 xadder_32_app.xcla_4_app_1.xand4_r_c3.xnfet_2.
                                            nfet               1.00 
      408 xadder_32_app.xcla_4_app_1.xand4_r_c3.xnfet_3.
                                            nfet               1.00 
      409 xadder_32_app.xcla_4_app_1.xand4_r_c3.xnfet_4.
                                            nfet               1.00 
      410 xadder_32_app.xcla_4_app_1.xand4_r_c3.xinv_size_1.
                                            inv_size_1         1.00 
      411 xadder_32_app.xcla_4_app_1.xand3_r_c3.xpfet_1.
                                            pfet               1.00 
      412 xadder_32_app.xcla_4_app_1.xand3_r_c3.xpfet_2.
                                            pfet               1.00 
      413 xadder_32_app.xcla_4_app_1.xand3_r_c3.xpfet_3.
                                            pfet               1.00 
      414 xadder_32_app.xcla_4_app_1.xand3_r_c3.xnfet_1.
                                            nfet               1.00 
      415 xadder_32_app.xcla_4_app_1.xand3_r_c3.xnfet_2.
                                            nfet               1.00 
      416 xadder_32_app.xcla_4_app_1.xand3_r_c3.xnfet_3.
                                            nfet               1.00 
      417 xadder_32_app.xcla_4_app_1.xand3_r_c3.xinv_size_1.
                                            inv_size_1         1.00 
      418 xadder_32_app.xcla_4_app_1.xand2_r_c3.xpfet_1.
                                            pfet               1.00 
      419 xadder_32_app.xcla_4_app_1.xand2_r_c3.xpfet_2.
                                            pfet               1.00 
      420 xadder_32_app.xcla_4_app_1.xand2_r_c3.xnfet_1.
                                            nfet               1.00 
      421 xadder_32_app.xcla_4_app_1.xand2_r_c3.xnfet_2.
                                            nfet               1.00 
      422 xadder_32_app.xcla_4_app_1.xand2_r_c3.xinv_size_1.
                                            inv_size_1         1.00 
      423 xadder_32_app.xcla_4_app_1.xor4_r_c3.xpfet_1.
                                            pfet               1.00 
      424 xadder_32_app.xcla_4_app_1.xor4_r_c3.xpfet_2.
                                            pfet               1.00 
      425 xadder_32_app.xcla_4_app_1.xor4_r_c3.xpfet_3.
                                            pfet               1.00 
      426 xadder_32_app.xcla_4_app_1.xor4_r_c3.xpfet_4.
                                            pfet               1.00 
      427 xadder_32_app.xcla_4_app_1.xor4_r_c3.xnfet_1.
                                            nfet               1.00 
      428 xadder_32_app.xcla_4_app_1.xor4_r_c3.xnfet_2.
                                            nfet               1.00 
      429 xadder_32_app.xcla_4_app_1.xor4_r_c3.xnfet_3.
                                            nfet               1.00 
      430 xadder_32_app.xcla_4_app_1.xor4_r_c3.xnfet_4.
                                            nfet               1.00 
      431 xadder_32_app.xcla_4_app_1.xor4_r_c3.xinv_size_1.
                                            inv_size_1         1.00 
      432 xadder_32_app.xcla_4_app_1.xand5_rg_c4.xpfet_g1.
                                            pfet               1.00 
      433 xadder_32_app.xcla_4_app_1.xand5_rg_c4.xpfet_11.
                                            pfet               1.00 
      434 xadder_32_app.xcla_4_app_1.xand5_rg_c4.xpfet_12.
                                            pfet               1.00 
      435 xadder_32_app.xcla_4_app_1.xand5_rg_c4.xpfet_13.
                                            pfet               1.00 
      436 xadder_32_app.xcla_4_app_1.xand5_rg_c4.xnfet_11.
                                            nfet               1.00 
      437 xadder_32_app.xcla_4_app_1.xand5_rg_c4.xnfet_12.
                                            nfet               1.00 
      438 xadder_32_app.xcla_4_app_1.xand5_rg_c4.xnfet_13.
                                            nfet               1.00 
      439 xadder_32_app.xcla_4_app_1.xand5_rg_c4.xpfet1.
                                            pfet               1.00 
      440 xadder_32_app.xcla_4_app_1.xand5_rg_c4.xnfet1.
                                            nfet               1.00 
      441 xadder_32_app.xcla_4_app_1.xand5_rg_c4.xpfet_21.
                                            pfet               1.00 
      442 xadder_32_app.xcla_4_app_1.xand5_rg_c4.xpfet_22.
                                            pfet               1.00 
      443 xadder_32_app.xcla_4_app_1.xand5_rg_c4.xnfet_21.
                                            nfet               1.00 
      444 xadder_32_app.xcla_4_app_1.xand5_rg_c4.xnfet_22.
                                            nfet               1.00 
      445 xadder_32_app.xcla_4_app_1.xand5_rg_c4.xpfet2.
                                            pfet               1.00 
      446 xadder_32_app.xcla_4_app_1.xand5_rg_c4.xnfet2.
                                            nfet               1.00 
      447 xadder_32_app.xcla_4_app_1.xand5_rg_c4.xpfet_31.
                                            pfet               1.00 
      448 xadder_32_app.xcla_4_app_1.xand5_rg_c4.xpfet_32.
                                            pfet               1.00 
      449 xadder_32_app.xcla_4_app_1.xand5_rg_c4.xnfet_31.
                                            nfet               1.00 
      450 xadder_32_app.xcla_4_app_1.xand5_rg_c4.xnfet_32.
                                            nfet               1.00 
      451 xadder_32_app.xcla_4_app_1.xand5_rg_c4.xpfet3.
                                            pfet               1.00 
      452 xadder_32_app.xcla_4_app_1.xand5_rg_c4.xnfet3.
                                            nfet               1.00 
      453 xadder_32_app.xcla_4_app_1.xand4_r_c4.xpfet_1.
                                            pfet               1.00 
      454 xadder_32_app.xcla_4_app_1.xand4_r_c4.xpfet_2.
                                            pfet               1.00 
      455 xadder_32_app.xcla_4_app_1.xand4_r_c4.xpfet_3.
                                            pfet               1.00 
      456 xadder_32_app.xcla_4_app_1.xand4_r_c4.xpfet_4.
                                            pfet               1.00 
      457 xadder_32_app.xcla_4_app_1.xand4_r_c4.xnfet_1.
                                            nfet               1.00 
      458 xadder_32_app.xcla_4_app_1.xand4_r_c4.xnfet_2.
                                            nfet               1.00 
      459 xadder_32_app.xcla_4_app_1.xand4_r_c4.xnfet_3.
                                            nfet               1.00 
      460 xadder_32_app.xcla_4_app_1.xand4_r_c4.xnfet_4.
                                            nfet               1.00 
      461 xadder_32_app.xcla_4_app_1.xand4_r_c4.xinv_size_1.
                                            inv_size_1         1.00 
      462 xadder_32_app.xcla_4_app_1.xand3_r_c4.xpfet_1.
                                            pfet               1.00 
      463 xadder_32_app.xcla_4_app_1.xand3_r_c4.xpfet_2.
                                            pfet               1.00 
      464 xadder_32_app.xcla_4_app_1.xand3_r_c4.xpfet_3.
                                            pfet               1.00 
      465 xadder_32_app.xcla_4_app_1.xand3_r_c4.xnfet_1.
                                            nfet               1.00 
      466 xadder_32_app.xcla_4_app_1.xand3_r_c4.xnfet_2.
                                            nfet               1.00 
      467 xadder_32_app.xcla_4_app_1.xand3_r_c4.xnfet_3.
                                            nfet               1.00 
      468 xadder_32_app.xcla_4_app_1.xand3_r_c4.xinv_size_1.
                                            inv_size_1         1.00 
      469 xadder_32_app.xcla_4_app_1.xand2_r_c4.xpfet_1.
                                            pfet               1.00 
      470 xadder_32_app.xcla_4_app_1.xand2_r_c4.xpfet_2.
                                            pfet               1.00 
      471 xadder_32_app.xcla_4_app_1.xand2_r_c4.xnfet_1.
                                            nfet               1.00 
      472 xadder_32_app.xcla_4_app_1.xand2_r_c4.xnfet_2.
                                            nfet               1.00 
      473 xadder_32_app.xcla_4_app_1.xand2_r_c4.xinv_size_1.
                                            inv_size_1         1.00 
      474 xadder_32_app.xcla_4_app_1.xor4_r_c4.xpfet_1.
                                            pfet               1.00 
      475 xadder_32_app.xcla_4_app_1.xor4_r_c4.xpfet_2.
                                            pfet               1.00 
      476 xadder_32_app.xcla_4_app_1.xor4_r_c4.xpfet_3.
                                            pfet               1.00 
      477 xadder_32_app.xcla_4_app_1.xor4_r_c4.xpfet_4.
                                            pfet               1.00 
      478 xadder_32_app.xcla_4_app_1.xor4_r_c4.xnfet_1.
                                            nfet               1.00 
      479 xadder_32_app.xcla_4_app_1.xor4_r_c4.xnfet_2.
                                            nfet               1.00 
      480 xadder_32_app.xcla_4_app_1.xor4_r_c4.xnfet_3.
                                            nfet               1.00 
      481 xadder_32_app.xcla_4_app_1.xor4_r_c4.xnfet_4.
                                            nfet               1.00 
      482 xadder_32_app.xcla_4_app_1.xor4_r_c4.xinv_size_1.
                                            inv_size_1         1.00 
      483 xadder_32_app.xcla_4_app_1.xor2_rg_c4.xpfet_g1.
                                            pfet               1.00 
      484 xadder_32_app.xcla_4_app_1.xor2_rg_c4.xpfet_1.
                                            pfet               1.00 
      485 xadder_32_app.xcla_4_app_1.xor2_rg_c4.xpfet_2.
                                            pfet               1.00 
      486 xadder_32_app.xcla_4_app_1.xor2_rg_c4.xnfet_1.
                                            nfet               1.00 
      487 xadder_32_app.xcla_4_app_1.xor2_rg_c4.xnfet_2.
                                            nfet               1.00 
      488 xadder_32_app.xcla_4_app_1.xor2_rg_c4.xpfet.
                                            pfet               1.00 
      489 xadder_32_app.xcla_4_app_1.xor2_rg_c4.xnfet.
                                            nfet               1.00 
      490 xadder_32_app.xcla_4_app_1.xmux2to1.xinv.
                                            inv                1.00 
      491 xadder_32_app.xcla_4_app_1.xmux2to1.xtg_1.
                                            tg                 1.00 
      492 xadder_32_app.xcla_4_app_1.xmux2to1.xtg_2.
                                            tg                 1.00 
      493 xadder_32_app.xcla_4_app_1.xxor_tg_s0.xinv_size_1.
                                            inv_size_1         1.00 
      494 xadder_32_app.xcla_4_app_1.xxor_tg_s0.xpfet_inv.
                                            pfet               1.00 
      495 xadder_32_app.xcla_4_app_1.xxor_tg_s0.xnfet_inv.
                                            nfet               1.00 
      496 xadder_32_app.xcla_4_app_1.xxor_tg_s0.xpfet_tg.
                                            pfet               1.00 
      497 xadder_32_app.xcla_4_app_1.xxor_tg_s0.xnfet_tg.
                                            nfet               1.00 
      498 xadder_32_app.xcla_4_app_1.xxor_tg_s1.xinv_size_1.
                                            inv_size_1         1.00 
      499 xadder_32_app.xcla_4_app_1.xxor_tg_s1.xpfet_inv.
                                            pfet               1.00 
      500 xadder_32_app.xcla_4_app_1.xxor_tg_s1.xnfet_inv.
                                            nfet               1.00 
      501 xadder_32_app.xcla_4_app_1.xxor_tg_s1.xpfet_tg.
                                            pfet               1.00 
      502 xadder_32_app.xcla_4_app_1.xxor_tg_s1.xnfet_tg.
                                            nfet               1.00 
      503 xadder_32_app.xcla_4_app_1.xxor_tg_s2.xinv_size_1.
                                            inv_size_1         1.00 
      504 xadder_32_app.xcla_4_app_1.xxor_tg_s2.xpfet_inv.
                                            pfet               1.00 
      505 xadder_32_app.xcla_4_app_1.xxor_tg_s2.xnfet_inv.
                                            nfet               1.00 
      506 xadder_32_app.xcla_4_app_1.xxor_tg_s2.xpfet_tg.
                                            pfet               1.00 
      507 xadder_32_app.xcla_4_app_1.xxor_tg_s2.xnfet_tg.
                                            nfet               1.00 
      508 xadder_32_app.xcla_4_app_1.xxor_tg_s3.xinv_size_1.
                                            inv_size_1         1.00 
      509 xadder_32_app.xcla_4_app_1.xxor_tg_s3.xpfet_inv.
                                            pfet               1.00 
      510 xadder_32_app.xcla_4_app_1.xxor_tg_s3.xnfet_inv.
                                            nfet               1.00 
      511 xadder_32_app.xcla_4_app_1.xxor_tg_s3.xpfet_tg.
                                            pfet               1.00 
      512 xadder_32_app.xcla_4_app_1.xxor_tg_s3.xnfet_tg.
                                            nfet               1.00 
      513 xadder_32_app.xcla_4_app_2.xxor_tg_p0.xinv_size_1.
                                            inv_size_1         1.00 
      514 xadder_32_app.xcla_4_app_2.xxor_tg_p0.xpfet_inv.
                                            pfet               1.00 
      515 xadder_32_app.xcla_4_app_2.xxor_tg_p0.xnfet_inv.
                                            nfet               1.00 
      516 xadder_32_app.xcla_4_app_2.xxor_tg_p0.xpfet_tg.
                                            pfet               1.00 
      517 xadder_32_app.xcla_4_app_2.xxor_tg_p0.xnfet_tg.
                                            nfet               1.00 
      518 xadder_32_app.xcla_4_app_2.xxor_tg_p1.xinv_size_1.
                                            inv_size_1         1.00 
      519 xadder_32_app.xcla_4_app_2.xxor_tg_p1.xpfet_inv.
                                            pfet               1.00 
      520 xadder_32_app.xcla_4_app_2.xxor_tg_p1.xnfet_inv.
                                            nfet               1.00 
      521 xadder_32_app.xcla_4_app_2.xxor_tg_p1.xpfet_tg.
                                            pfet               1.00 
      522 xadder_32_app.xcla_4_app_2.xxor_tg_p1.xnfet_tg.
                                            nfet               1.00 
      523 xadder_32_app.xcla_4_app_2.xxor_tg_p2.xinv_size_1.
                                            inv_size_1         1.00 
      524 xadder_32_app.xcla_4_app_2.xxor_tg_p2.xpfet_inv.
                                            pfet               1.00 
      525 xadder_32_app.xcla_4_app_2.xxor_tg_p2.xnfet_inv.
                                            nfet               1.00 
      526 xadder_32_app.xcla_4_app_2.xxor_tg_p2.xpfet_tg.
                                            pfet               1.00 
      527 xadder_32_app.xcla_4_app_2.xxor_tg_p2.xnfet_tg.
                                            nfet               1.00 
      528 xadder_32_app.xcla_4_app_2.xxor_tg_p3.xinv_size_1.
                                            inv_size_1         1.00 
      529 xadder_32_app.xcla_4_app_2.xxor_tg_p3.xpfet_inv.
                                            pfet               1.00 
      530 xadder_32_app.xcla_4_app_2.xxor_tg_p3.xnfet_inv.
                                            nfet               1.00 
      531 xadder_32_app.xcla_4_app_2.xxor_tg_p3.xpfet_tg.
                                            pfet               1.00 
      532 xadder_32_app.xcla_4_app_2.xxor_tg_p3.xnfet_tg.
                                            nfet               1.00 
      533 xadder_32_app.xcla_4_app_2.xand2_r_g0.xpfet_1.
                                            pfet               1.00 
      534 xadder_32_app.xcla_4_app_2.xand2_r_g0.xpfet_2.
                                            pfet               1.00 
      535 xadder_32_app.xcla_4_app_2.xand2_r_g0.xnfet_1.
                                            nfet               1.00 
      536 xadder_32_app.xcla_4_app_2.xand2_r_g0.xnfet_2.
                                            nfet               1.00 
      537 xadder_32_app.xcla_4_app_2.xand2_r_g0.xinv_size_1.
                                            inv_size_1         1.00 
      538 xadder_32_app.xcla_4_app_2.xand2_r_g1.xpfet_1.
                                            pfet               1.00 
      539 xadder_32_app.xcla_4_app_2.xand2_r_g1.xpfet_2.
                                            pfet               1.00 
      540 xadder_32_app.xcla_4_app_2.xand2_r_g1.xnfet_1.
                                            nfet               1.00 
      541 xadder_32_app.xcla_4_app_2.xand2_r_g1.xnfet_2.
                                            nfet               1.00 
      542 xadder_32_app.xcla_4_app_2.xand2_r_g1.xinv_size_1.
                                            inv_size_1         1.00 
      543 xadder_32_app.xcla_4_app_2.xand2_r_g2.xpfet_1.
                                            pfet               1.00 
      544 xadder_32_app.xcla_4_app_2.xand2_r_g2.xpfet_2.
                                            pfet               1.00 
      545 xadder_32_app.xcla_4_app_2.xand2_r_g2.xnfet_1.
                                            nfet               1.00 
      546 xadder_32_app.xcla_4_app_2.xand2_r_g2.xnfet_2.
                                            nfet               1.00 
      547 xadder_32_app.xcla_4_app_2.xand2_r_g2.xinv_size_1.
                                            inv_size_1         1.00 
      548 xadder_32_app.xcla_4_app_2.xand2_r_g3.xpfet_1.
                                            pfet               1.00 
      549 xadder_32_app.xcla_4_app_2.xand2_r_g3.xpfet_2.
                                            pfet               1.00 
      550 xadder_32_app.xcla_4_app_2.xand2_r_g3.xnfet_1.
                                            nfet               1.00 
      551 xadder_32_app.xcla_4_app_2.xand2_r_g3.xnfet_2.
                                            nfet               1.00 
      552 xadder_32_app.xcla_4_app_2.xand2_r_g3.xinv_size_1.
                                            inv_size_1         1.00 
      553 xadder_32_app.xcla_4_app_2.xand2_r_c1.xpfet_1.
                                            pfet               1.00 
      554 xadder_32_app.xcla_4_app_2.xand2_r_c1.xpfet_2.
                                            pfet               1.00 
      555 xadder_32_app.xcla_4_app_2.xand2_r_c1.xnfet_1.
                                            nfet               1.00 
      556 xadder_32_app.xcla_4_app_2.xand2_r_c1.xnfet_2.
                                            nfet               1.00 
      557 xadder_32_app.xcla_4_app_2.xand2_r_c1.xinv_size_1.
                                            inv_size_1         1.00 
      558 xadder_32_app.xcla_4_app_2.xor2_r_c1.xpfet_1.
                                            pfet               1.00 
      559 xadder_32_app.xcla_4_app_2.xor2_r_c1.xpfet_2.
                                            pfet               1.00 
      560 xadder_32_app.xcla_4_app_2.xor2_r_c1.xnfet_1.
                                            nfet               1.00 
      561 xadder_32_app.xcla_4_app_2.xor2_r_c1.xnfet_2.
                                            nfet               1.00 
      562 xadder_32_app.xcla_4_app_2.xor2_r_c1.xinv_size_1.
                                            inv_size_1         1.00 
      563 xadder_32_app.xcla_4_app_2.xand3_r_c2.xpfet_1.
                                            pfet               1.00 
      564 xadder_32_app.xcla_4_app_2.xand3_r_c2.xpfet_2.
                                            pfet               1.00 
      565 xadder_32_app.xcla_4_app_2.xand3_r_c2.xpfet_3.
                                            pfet               1.00 
      566 xadder_32_app.xcla_4_app_2.xand3_r_c2.xnfet_1.
                                            nfet               1.00 
      567 xadder_32_app.xcla_4_app_2.xand3_r_c2.xnfet_2.
                                            nfet               1.00 
      568 xadder_32_app.xcla_4_app_2.xand3_r_c2.xnfet_3.
                                            nfet               1.00 
      569 xadder_32_app.xcla_4_app_2.xand3_r_c2.xinv_size_1.
                                            inv_size_1         1.00 
      570 xadder_32_app.xcla_4_app_2.xand2_r_c2.xpfet_1.
                                            pfet               1.00 
      571 xadder_32_app.xcla_4_app_2.xand2_r_c2.xpfet_2.
                                            pfet               1.00 
      572 xadder_32_app.xcla_4_app_2.xand2_r_c2.xnfet_1.
                                            nfet               1.00 
      573 xadder_32_app.xcla_4_app_2.xand2_r_c2.xnfet_2.
                                            nfet               1.00 
      574 xadder_32_app.xcla_4_app_2.xand2_r_c2.xinv_size_1.
                                            inv_size_1         1.00 
      575 xadder_32_app.xcla_4_app_2.xor3_r_c2.xpfet_1.
                                            pfet               1.00 
      576 xadder_32_app.xcla_4_app_2.xor3_r_c2.xpfet_2.
                                            pfet               1.00 
      577 xadder_32_app.xcla_4_app_2.xor3_r_c2.xpfet_3.
                                            pfet               1.00 
      578 xadder_32_app.xcla_4_app_2.xor3_r_c2.xnfet_1.
                                            nfet               1.00 
      579 xadder_32_app.xcla_4_app_2.xor3_r_c2.xnfet_2.
                                            nfet               1.00 
      580 xadder_32_app.xcla_4_app_2.xor3_r_c2.xnfet_3.
                                            nfet               1.00 
      581 xadder_32_app.xcla_4_app_2.xor3_r_c2.xinv_size_1.
                                            inv_size_1         1.00 
      582 xadder_32_app.xcla_4_app_2.xand4_r_c3.xpfet_1.
                                            pfet               1.00 
      583 xadder_32_app.xcla_4_app_2.xand4_r_c3.xpfet_2.
                                            pfet               1.00 
      584 xadder_32_app.xcla_4_app_2.xand4_r_c3.xpfet_3.
                                            pfet               1.00 
      585 xadder_32_app.xcla_4_app_2.xand4_r_c3.xpfet_4.
                                            pfet               1.00 
      586 xadder_32_app.xcla_4_app_2.xand4_r_c3.xnfet_1.
                                            nfet               1.00 
      587 xadder_32_app.xcla_4_app_2.xand4_r_c3.xnfet_2.
                                            nfet               1.00 
      588 xadder_32_app.xcla_4_app_2.xand4_r_c3.xnfet_3.
                                            nfet               1.00 
      589 xadder_32_app.xcla_4_app_2.xand4_r_c3.xnfet_4.
                                            nfet               1.00 
      590 xadder_32_app.xcla_4_app_2.xand4_r_c3.xinv_size_1.
                                            inv_size_1         1.00 
      591 xadder_32_app.xcla_4_app_2.xand3_r_c3.xpfet_1.
                                            pfet               1.00 
      592 xadder_32_app.xcla_4_app_2.xand3_r_c3.xpfet_2.
                                            pfet               1.00 
      593 xadder_32_app.xcla_4_app_2.xand3_r_c3.xpfet_3.
                                            pfet               1.00 
      594 xadder_32_app.xcla_4_app_2.xand3_r_c3.xnfet_1.
                                            nfet               1.00 
      595 xadder_32_app.xcla_4_app_2.xand3_r_c3.xnfet_2.
                                            nfet               1.00 
      596 xadder_32_app.xcla_4_app_2.xand3_r_c3.xnfet_3.
                                            nfet               1.00 
      597 xadder_32_app.xcla_4_app_2.xand3_r_c3.xinv_size_1.
                                            inv_size_1         1.00 
      598 xadder_32_app.xcla_4_app_2.xand2_r_c3.xpfet_1.
                                            pfet               1.00 
      599 xadder_32_app.xcla_4_app_2.xand2_r_c3.xpfet_2.
                                            pfet               1.00 
      600 xadder_32_app.xcla_4_app_2.xand2_r_c3.xnfet_1.
                                            nfet               1.00 
      601 xadder_32_app.xcla_4_app_2.xand2_r_c3.xnfet_2.
                                            nfet               1.00 
      602 xadder_32_app.xcla_4_app_2.xand2_r_c3.xinv_size_1.
                                            inv_size_1         1.00 
      603 xadder_32_app.xcla_4_app_2.xor4_r_c3.xpfet_1.
                                            pfet               1.00 
      604 xadder_32_app.xcla_4_app_2.xor4_r_c3.xpfet_2.
                                            pfet               1.00 
      605 xadder_32_app.xcla_4_app_2.xor4_r_c3.xpfet_3.
                                            pfet               1.00 
      606 xadder_32_app.xcla_4_app_2.xor4_r_c3.xpfet_4.
                                            pfet               1.00 
      607 xadder_32_app.xcla_4_app_2.xor4_r_c3.xnfet_1.
                                            nfet               1.00 
      608 xadder_32_app.xcla_4_app_2.xor4_r_c3.xnfet_2.
                                            nfet               1.00 
      609 xadder_32_app.xcla_4_app_2.xor4_r_c3.xnfet_3.
                                            nfet               1.00 
      610 xadder_32_app.xcla_4_app_2.xor4_r_c3.xnfet_4.
                                            nfet               1.00 
      611 xadder_32_app.xcla_4_app_2.xor4_r_c3.xinv_size_1.
                                            inv_size_1         1.00 
      612 xadder_32_app.xcla_4_app_2.xand5_rg_c4.xpfet_g1.
                                            pfet               1.00 
      613 xadder_32_app.xcla_4_app_2.xand5_rg_c4.xpfet_11.
                                            pfet               1.00 
      614 xadder_32_app.xcla_4_app_2.xand5_rg_c4.xpfet_12.
                                            pfet               1.00 
      615 xadder_32_app.xcla_4_app_2.xand5_rg_c4.xpfet_13.
                                            pfet               1.00 
      616 xadder_32_app.xcla_4_app_2.xand5_rg_c4.xnfet_11.
                                            nfet               1.00 
      617 xadder_32_app.xcla_4_app_2.xand5_rg_c4.xnfet_12.
                                            nfet               1.00 
      618 xadder_32_app.xcla_4_app_2.xand5_rg_c4.xnfet_13.
                                            nfet               1.00 
      619 xadder_32_app.xcla_4_app_2.xand5_rg_c4.xpfet1.
                                            pfet               1.00 
      620 xadder_32_app.xcla_4_app_2.xand5_rg_c4.xnfet1.
                                            nfet               1.00 
      621 xadder_32_app.xcla_4_app_2.xand5_rg_c4.xpfet_21.
                                            pfet               1.00 
      622 xadder_32_app.xcla_4_app_2.xand5_rg_c4.xpfet_22.
                                            pfet               1.00 
      623 xadder_32_app.xcla_4_app_2.xand5_rg_c4.xnfet_21.
                                            nfet               1.00 
      624 xadder_32_app.xcla_4_app_2.xand5_rg_c4.xnfet_22.
                                            nfet               1.00 
      625 xadder_32_app.xcla_4_app_2.xand5_rg_c4.xpfet2.
                                            pfet               1.00 
      626 xadder_32_app.xcla_4_app_2.xand5_rg_c4.xnfet2.
                                            nfet               1.00 
      627 xadder_32_app.xcla_4_app_2.xand5_rg_c4.xpfet_31.
                                            pfet               1.00 
      628 xadder_32_app.xcla_4_app_2.xand5_rg_c4.xpfet_32.
                                            pfet               1.00 
      629 xadder_32_app.xcla_4_app_2.xand5_rg_c4.xnfet_31.
                                            nfet               1.00 
      630 xadder_32_app.xcla_4_app_2.xand5_rg_c4.xnfet_32.
                                            nfet               1.00 
      631 xadder_32_app.xcla_4_app_2.xand5_rg_c4.xpfet3.
                                            pfet               1.00 
      632 xadder_32_app.xcla_4_app_2.xand5_rg_c4.xnfet3.
                                            nfet               1.00 
      633 xadder_32_app.xcla_4_app_2.xand4_r_c4.xpfet_1.
                                            pfet               1.00 
      634 xadder_32_app.xcla_4_app_2.xand4_r_c4.xpfet_2.
                                            pfet               1.00 
      635 xadder_32_app.xcla_4_app_2.xand4_r_c4.xpfet_3.
                                            pfet               1.00 
      636 xadder_32_app.xcla_4_app_2.xand4_r_c4.xpfet_4.
                                            pfet               1.00 
      637 xadder_32_app.xcla_4_app_2.xand4_r_c4.xnfet_1.
                                            nfet               1.00 
      638 xadder_32_app.xcla_4_app_2.xand4_r_c4.xnfet_2.
                                            nfet               1.00 
      639 xadder_32_app.xcla_4_app_2.xand4_r_c4.xnfet_3.
                                            nfet               1.00 
      640 xadder_32_app.xcla_4_app_2.xand4_r_c4.xnfet_4.
                                            nfet               1.00 
      641 xadder_32_app.xcla_4_app_2.xand4_r_c4.xinv_size_1.
                                            inv_size_1         1.00 
      642 xadder_32_app.xcla_4_app_2.xand3_r_c4.xpfet_1.
                                            pfet               1.00 
      643 xadder_32_app.xcla_4_app_2.xand3_r_c4.xpfet_2.
                                            pfet               1.00 
      644 xadder_32_app.xcla_4_app_2.xand3_r_c4.xpfet_3.
                                            pfet               1.00 
      645 xadder_32_app.xcla_4_app_2.xand3_r_c4.xnfet_1.
                                            nfet               1.00 
      646 xadder_32_app.xcla_4_app_2.xand3_r_c4.xnfet_2.
                                            nfet               1.00 
      647 xadder_32_app.xcla_4_app_2.xand3_r_c4.xnfet_3.
                                            nfet               1.00 
      648 xadder_32_app.xcla_4_app_2.xand3_r_c4.xinv_size_1.
                                            inv_size_1         1.00 
      649 xadder_32_app.xcla_4_app_2.xand2_r_c4.xpfet_1.
                                            pfet               1.00 
      650 xadder_32_app.xcla_4_app_2.xand2_r_c4.xpfet_2.
                                            pfet               1.00 
      651 xadder_32_app.xcla_4_app_2.xand2_r_c4.xnfet_1.
                                            nfet               1.00 
      652 xadder_32_app.xcla_4_app_2.xand2_r_c4.xnfet_2.
                                            nfet               1.00 
      653 xadder_32_app.xcla_4_app_2.xand2_r_c4.xinv_size_1.
                                            inv_size_1         1.00 
      654 xadder_32_app.xcla_4_app_2.xor4_r_c4.xpfet_1.
                                            pfet               1.00 
      655 xadder_32_app.xcla_4_app_2.xor4_r_c4.xpfet_2.
                                            pfet               1.00 
      656 xadder_32_app.xcla_4_app_2.xor4_r_c4.xpfet_3.
                                            pfet               1.00 
      657 xadder_32_app.xcla_4_app_2.xor4_r_c4.xpfet_4.
                                            pfet               1.00 
      658 xadder_32_app.xcla_4_app_2.xor4_r_c4.xnfet_1.
                                            nfet               1.00 
      659 xadder_32_app.xcla_4_app_2.xor4_r_c4.xnfet_2.
                                            nfet               1.00 
      660 xadder_32_app.xcla_4_app_2.xor4_r_c4.xnfet_3.
                                            nfet               1.00 
      661 xadder_32_app.xcla_4_app_2.xor4_r_c4.xnfet_4.
                                            nfet               1.00 
      662 xadder_32_app.xcla_4_app_2.xor4_r_c4.xinv_size_1.
                                            inv_size_1         1.00 
      663 xadder_32_app.xcla_4_app_2.xor2_rg_c4.xpfet_g1.
                                            pfet               1.00 
      664 xadder_32_app.xcla_4_app_2.xor2_rg_c4.xpfet_1.
                                            pfet               1.00 
      665 xadder_32_app.xcla_4_app_2.xor2_rg_c4.xpfet_2.
                                            pfet               1.00 
      666 xadder_32_app.xcla_4_app_2.xor2_rg_c4.xnfet_1.
                                            nfet               1.00 
      667 xadder_32_app.xcla_4_app_2.xor2_rg_c4.xnfet_2.
                                            nfet               1.00 
      668 xadder_32_app.xcla_4_app_2.xor2_rg_c4.xpfet.
                                            pfet               1.00 
      669 xadder_32_app.xcla_4_app_2.xor2_rg_c4.xnfet.
                                            nfet               1.00 
      670 xadder_32_app.xcla_4_app_2.xmux2to1.xinv.
                                            inv                1.00 
      671 xadder_32_app.xcla_4_app_2.xmux2to1.xtg_1.
                                            tg                 1.00 
      672 xadder_32_app.xcla_4_app_2.xmux2to1.xtg_2.
                                            tg                 1.00 
      673 xadder_32_app.xcla_4_app_2.xxor_tg_s0.xinv_size_1.
                                            inv_size_1         1.00 
      674 xadder_32_app.xcla_4_app_2.xxor_tg_s0.xpfet_inv.
                                            pfet               1.00 
      675 xadder_32_app.xcla_4_app_2.xxor_tg_s0.xnfet_inv.
                                            nfet               1.00 
      676 xadder_32_app.xcla_4_app_2.xxor_tg_s0.xpfet_tg.
                                            pfet               1.00 
      677 xadder_32_app.xcla_4_app_2.xxor_tg_s0.xnfet_tg.
                                            nfet               1.00 
      678 xadder_32_app.xcla_4_app_2.xxor_tg_s1.xinv_size_1.
                                            inv_size_1         1.00 
      679 xadder_32_app.xcla_4_app_2.xxor_tg_s1.xpfet_inv.
                                            pfet               1.00 
      680 xadder_32_app.xcla_4_app_2.xxor_tg_s1.xnfet_inv.
                                            nfet               1.00 
      681 xadder_32_app.xcla_4_app_2.xxor_tg_s1.xpfet_tg.
                                            pfet               1.00 
      682 xadder_32_app.xcla_4_app_2.xxor_tg_s1.xnfet_tg.
                                            nfet               1.00 
      683 xadder_32_app.xcla_4_app_2.xxor_tg_s2.xinv_size_1.
                                            inv_size_1         1.00 
      684 xadder_32_app.xcla_4_app_2.xxor_tg_s2.xpfet_inv.
[...]
 + 101:p2      =  82.8014n  101:p3      =  81.8786n  102:c1      =  31.5846n
 + 102:c1_t    =  31.6218n  102:c2      =  31.4509n  102:c2_t1   =  31.6611n
 + 102:c2_t2   =  31.6611n  102:c3      =  31.5809n  102:c3_t1   =  31.7003n
 + 102:c3_t2   =  31.7003n  102:c3_t3   =  31.7003n  102:c4_0    = 459.7674n
 + 102:c4_1    =  69.3999n  102:c4_t1   =  20.7195n  102:c4_t2   =  31.7003n
 + 102:c4_t3   =  31.7003n  102:c4_t4   =  31.7003n  102:g0      =  31.7398n
 + 102:g1      =  31.7397n  102:g2      =  31.7396n  102:g3      =  31.7003n
 + 102:p0      =  82.7450n  102:p1      =  82.7749n  102:p2      =  82.8013n
 + 102:p3      =  81.8784n  103:c1      =  31.5846n  103:c1_t    =  31.6218n
 + 103:c2      =  31.4509n  103:c2_t1   =  31.6611n  103:c2_t2   =  31.6611n
 + 103:c3      =  31.5809n  103:c3_t1   =  31.7003n  103:c3_t2   =  31.7003n
 + 103:c3_t3   =  31.7003n  103:c4_0    = 459.7667n  103:c4_1    =  69.3999n
 + 103:c4_t1   =  20.7195n  103:c4_t2   =  31.7003n  103:c4_t3   =  31.7003n
 + 103:c4_t4   =  31.7003n  103:g0      =  31.7398n  103:g1      =  31.7397n
 + 103:g2      =  31.7396n  103:g3      =  31.7003n  103:p0      =  82.7450n
 + 103:p1      =  82.7749n  103:p2      =  82.8013n  103:p3      =  81.8784n
 + 104:c1      =  31.5846n  104:c1_t    =  31.6218n  104:c2      =  31.4509n
 + 104:c2_t1   =  31.6611n  104:c2_t2   =  31.6611n  104:c3      =  31.5809n
 + 104:c3_t1   =  31.7003n  104:c3_t2   =  31.7003n  104:c3_t3   =  31.7003n
 + 104:c4_0    = 459.7676n  104:c4_1    =  69.3999n  104:c4_t1   =  20.7195n
 + 104:c4_t2   =  31.7003n  104:c4_t3   =  31.7003n  104:c4_t4   =  31.7003n
 + 104:g0      =  31.7398n  104:g1      =  31.7397n  104:g2      =  31.7396n
 + 104:g3      =  31.7003n  104:p0      =  82.7450n  104:p1      =  82.7749n
 + 104:p2      =  82.8013n  104:p3      =  81.8784n  105:c1      =  31.5846n
 + 105:c1_t    =  31.6218n  105:c2      =  31.4509n  105:c2_t1   =  31.6611n
 + 105:c2_t2   =  31.6611n  105:c3      =  31.5809n  105:c3_t1   =  31.7003n
 + 105:c3_t2   =  31.7003n  105:c3_t3   =  31.7003n  105:c4_0    = 459.7674n
 + 105:c4_1    =  69.4388n  105:c4_t1   =  20.7195n  105:c4_t2   =  31.7003n
 + 105:c4_t3   =  31.7003n  105:c4_t4   =  31.7003n  105:g0      =  31.7398n
 + 105:g1      =  31.7397n  105:g2      =  31.7396n  105:g3      =  31.7003n
 + 105:p0      =  82.7450n  105:p1      =  82.7749n  105:p2      =  82.8013n
 + 105:p3      =  81.8784n  106:c1      =  31.5846n  106:c1_t    =  31.6218n
 + 106:c2      =  31.4509n  106:c2_t1   =  31.6611n  106:c2_t2   =  31.6611n
 + 106:c3      =  31.5809n  106:c3_t1   =  31.7003n  106:c3_t2   =  31.7003n
 + 106:c3_t3   =  31.7003n  106:c4_0    =   1.3970u  106:c4_1    =  31.5222n
 + 106:c4_t1   =  31.6182n  106:c4_t2   =  31.7003n  106:c4_t3   =  31.7003n
 + 106:c4_t4   =  31.7003n  106:g0      =  31.7398n  106:g1      =  31.7397n
 + 106:g2      =  31.7396n  106:g3      =  31.7003n  106:p0      =  82.7840n
 + 106:p1      =  82.8139n  106:p2      =  82.8403n  106:p3      =  81.9172n
 + 107:c1      =  31.5846n  107:c1_t    =  31.6218n  107:c2      =  31.4511n
 + 107:c2_t1   =  31.6607n  107:c2_t2   =  31.6611n  107:c3      =  31.5809n
 + 107:c3_t1   =  31.7000n  107:c3_t2   =  31.7003n  107:c3_t3   =  31.7003n
 + 107:c4_0    =   1.3970u  107:c4_1    =  31.5222n  107:c4_t1   =  31.5878n
 + 107:c4_t2   =  31.7003n  107:c4_t3   =  31.7003n  107:c4_t4   =  31.7003n
 + 107:g0      =  31.7398n  107:g1      =  31.7397n  107:g2      =  31.7396n
 + 107:g3      =  31.7003n  107:p0      =  82.3813n  107:p1      =  82.8271n
 + 107:p2      =  82.8405n  107:p3      =  81.9174n  108:c1      =  31.5846n
 + 108:c1_t    =  31.6218n  108:c2      =  31.4511n  108:c2_t1   =  31.6607n
 + 108:c2_t2   =  31.6611n  108:c3      =  31.5809n  108:c3_t1   =  31.7000n
 + 108:c3_t2   =  31.7003n  108:c3_t3   =  31.7003n  108:c4_0    = 513.4165n
 + 108:c4_1    =  31.5212n  108:c4_t1   =  31.5880n  108:c4_t2   =  31.7003n
 + 108:c4_t3   =  31.7003n  108:c4_t4   =  31.7003n  108:g0      =  31.7398n
 + 108:g1      =  31.7397n  108:g2      =  31.7396n  108:g3      =  31.7003n
 + 108:p0      =  82.3813n  108:p1      =  82.8271n  108:p2      =  82.8405n
 + 108:p3      =  81.9174n  109:in_2_n  = 699.9999m  110:in_2_n  = 699.9999m
 + 111:in_2_n  = 699.9999m  112:in_2_n  = 699.9999m  113:node_1  =  51.1871m
 + 113:s       = 700.0000m  114:node_1  =  51.1871m  114:s       = 700.0000m
 + 115:node_1  =  51.1871m  115:s       = 700.0000m  116:node_1  =  51.1871m
 + 116:s       = 700.0000m  117:node_1  =  51.1871m  117:s       = 700.0000m
 + 118:node_1  = 700.0000m  118:s       = 699.9999m  119:node_1  =  11.8749m
 + 119:node_2  =  62.5266m  119:s       = 700.0000m  120:node_1  =  51.1871m
 + 120:s       = 700.0000m  121:node_1  = 700.0000m  121:node_2  = 699.9999m
 + 121:s       = 699.9999m  122:node_1  =   8.0286m  122:node_2  =  19.8894m
 + 122:node_3  =  70.1729m  122:s       = 700.0000m  123:node_1  =  11.8749m
 + 123:node_2  =  62.5266m  123:s       = 700.0000m  124:node_1  =  51.1871m
 + 124:s       = 700.0000m  125:node_1  = 700.0000m  125:node_2  = 700.0000m
 + 125:node_3  = 699.9999m  125:s       = 699.9999m  126:node_11 =  11.1535m
 + 126:node_12 =  46.1300m  126:node_21 =  35.5957m  126:node_31 =  35.5958m
 + 126:out1    =  20.7200n  126:out2    =  20.7200n  126:s1      = 464.7064m
 + 126:s2      = 464.7064m  126:s3      = 464.7064m  126:vdd_g1  = 464.7064m
 + 127:node_1  =   8.0286m  127:node_2  =  19.8895m  127:node_3  =  70.1730m
 + 127:s       = 700.0000m  128:node_1  =  11.8749m  128:node_2  =  62.5266m
 + 128:s       = 700.0000m  129:node_1  =  51.1871m  129:s       = 700.0000m
 + 130:node_1  = 700.0000m  130:node_2  = 700.0000m  130:node_3  = 699.9999m
 + 130:s       = 699.9999m  131:node_1  = 336.3704m  131:s       = 336.3696m
 + 131:vdd_g1  = 336.3712m  132:sel_n   =  37.7677n  133:in_2_n  = 699.9999m
 + 134:in_2_n  = 699.9999m  135:in_2_n  = 699.9999m  136:in_2_n  = 699.9999m
 + 137:in_2_n  = 699.9999m  138:in_2_n  = 699.9999m  139:in_2_n  = 699.9999m
 + 140:in_2_n  = 699.9999m  141:node_1  =  51.1871m  141:s       = 700.0000m
 + 142:node_1  =  51.1871m  142:s       = 700.0000m  143:node_1  =  51.1871m
 + 143:s       = 700.0000m  144:node_1  =  51.1871m  144:s       = 700.0000m
 + 145:node_1  =  51.1871m  145:s       = 700.0000m  146:node_1  = 700.0000m
 + 146:s       = 699.9999m  147:node_1  =  11.8749m  147:node_2  =  62.5267m
 + 147:s       = 700.0000m  148:node_1  =  51.1871m  148:s       = 700.0000m
 + 149:node_1  = 700.0000m  149:node_2  = 699.9999m  149:s       = 699.9999m
 + 150:node_1  =   8.0286m  150:node_2  =  19.8895m  150:node_3  =  70.1730m
 + 150:s       = 700.0000m  151:node_1  =  11.8749m  151:node_2  =  62.5266m
 + 151:s       = 700.0000m  152:node_1  =  51.1871m  152:s       = 700.0000m
 + 153:node_1  = 700.0000m  153:node_2  = 700.0000m  153:node_3  = 699.9999m
 + 153:s       = 699.9999m  154:node_11 =  11.1535m  154:node_12 =  46.1300m
 + 154:node_21 =  35.5958m  154:node_31 =  35.5958m  154:out1    =  20.7200n
 + 154:out2    =  20.7200n  154:s1      = 464.7063m  154:s2      = 464.7063m
 + 154:s3      = 464.7063m  154:vdd_g1  = 464.7064m  155:node_1  =   8.0286m
 + 155:node_2  =  19.8895m  155:node_3  =  70.1730m  155:s       = 700.0000m
 + 156:node_1  =  11.8749m  156:node_2  =  62.5266m  156:s       = 700.0000m
 + 157:node_1  =  51.1871m  157:s       = 700.0000m  158:node_1  = 700.0000m
 + 158:node_2  = 700.0000m  158:node_3  = 699.9999m  158:s       = 699.9999m
 + 159:node_1  = 336.3704m  159:s       = 336.3696m  159:vdd_g1  = 336.3711m
 + 160:sel_n   =  37.7677n  161:in_2_n  = 699.9999m  162:in_2_n  = 699.9999m
 + 163:in_2_n  = 699.9999m  164:in_2_n  = 699.9999m  165:in_2_n  = 699.9999m
 + 166:in_2_n  = 699.9999m  167:in_2_n  = 699.9999m  168:in_2_n  = 699.9999m
 + 169:node_1  =  51.1871m  169:s       = 700.0000m  170:node_1  =  51.1871m
 + 170:s       = 700.0000m  171:node_1  =  51.1871m  171:s       = 700.0000m
 + 172:node_1  =  51.1871m  172:s       = 700.0000m  173:node_1  =  51.1871m
 + 173:s       = 700.0000m  174:node_1  = 700.0000m  174:s       = 699.9999m
 + 175:node_1  =  11.8749m  175:node_2  =  62.5267m  175:s       = 700.0000m
 + 176:node_1  =  51.1871m  176:s       = 700.0000m  177:node_1  = 700.0000m
 + 177:node_2  = 699.9999m  177:s       = 699.9999m  178:node_1  =   8.0286m
 + 178:node_2  =  19.8895m  178:node_3  =  70.1730m  178:s       = 700.0000m
 + 179:node_1  =  11.8749m  179:node_2  =  62.5266m  179:s       = 700.0000m
 + 180:node_1  =  51.1871m  180:s       = 700.0000m  181:node_1  = 700.0000m
 + 181:node_2  = 700.0000m  181:node_3  = 699.9999m  181:s       = 699.9999m
 + 182:node_11 =  11.1535m  182:node_12 =  46.1300m  182:node_21 =  35.5958m
 + 182:node_31 =  35.5958m  182:out1    =  20.7200n  182:out2    =  20.7200n
 + 182:s1      = 464.7063m  182:s2      = 464.7063m  182:s3      = 464.7063m
 + 182:vdd_g1  = 464.7064m  183:node_1  =   8.0286m  183:node_2  =  19.8894m
 + 183:node_3  =  70.1730m  183:s       = 700.0000m  184:node_1  =  11.8749m
 + 184:node_2  =  62.5266m  184:s       = 700.0000m  185:node_1  =  51.1871m
 + 185:s       = 700.0000m  186:node_1  = 700.0000m  186:node_2  = 700.0000m
 + 186:node_3  = 699.9999m  186:s       = 699.9999m  187:node_1  = 336.3704m
 + 187:s       = 336.3696m  187:vdd_g1  = 336.3712m  188:sel_n   =  37.7677n
 + 189:in_2_n  = 699.9999m  190:in_2_n  = 699.9999m  191:in_2_n  = 699.9999m
 + 192:in_2_n  = 699.9999m  193:in_2_n  = 699.9999m  194:in_2_n  = 699.9999m
 + 195:in_2_n  = 699.9999m  196:in_2_n  = 699.9999m  197:node_1  =  51.1871m
 + 197:s       = 700.0000m  198:node_1  =  51.1871m  198:s       = 700.0000m
 + 199:node_1  =  51.1871m  199:s       = 700.0000m  200:node_1  =  51.1871m
 + 200:s       = 700.0000m  201:node_1  =  51.1871m  201:s       = 700.0000m
 + 202:node_1  = 700.0000m  202:s       = 699.9999m  203:node_1  =  11.8749m
 + 203:node_2  =  62.5266m  203:s       = 700.0000m  204:node_1  =  51.1871m
 + 204:s       = 700.0000m  205:node_1  = 700.0000m  205:node_2  = 699.9999m
 + 205:s       = 699.9999m  206:node_1  =   8.0286m  206:node_2  =  19.8895m
 + 206:node_3  =  70.1730m  206:s       = 700.0000m  207:node_1  =  11.8749m
 + 207:node_2  =  62.5266m  207:s       = 700.0000m  208:node_1  =  51.1871m
 + 208:s       = 700.0000m  209:node_1  = 700.0000m  209:node_2  = 700.0000m
 + 209:node_3  = 699.9999m  209:s       = 699.9999m  210:node_11 =  11.1535m
 + 210:node_12 =  46.1300m  210:node_21 =  35.5958m  210:node_31 =  35.5958m
 + 210:out1    =  20.7200n  210:out2    =  20.7200n  210:s1      = 464.7064m
 + 210:s2      = 464.7064m  210:s3      = 464.7064m  210:vdd_g1  = 464.7064m
 + 211:node_1  =   8.0286m  211:node_2  =  19.8894m  211:node_3  =  70.1730m
 + 211:s       = 700.0000m  212:node_1  =  11.8749m  212:node_2  =  62.5267m
 + 212:s       = 700.0000m  213:node_1  =  51.1871m  213:s       = 700.0000m
 + 214:node_1  = 700.0000m  214:node_2  = 700.0000m  214:node_3  = 699.9999m
 + 214:s       = 699.9999m  215:node_1  = 336.3704m  215:s       = 336.3696m
 + 215:vdd_g1  = 336.3712m  216:sel_n   =  37.7677n  217:in_2_n  = 699.9999m
 + 218:in_2_n  = 699.9999m  219:in_2_n  = 699.9999m  220:in_2_n  = 699.9999m
 + 221:in_2_n  = 699.9999m  222:in_2_n  = 699.9999m  223:in_2_n  = 699.9999m
 + 224:in_2_n  = 699.9999m  225:node_1  =  51.1871m  225:s       = 700.0000m
 + 226:node_1  =  51.1871m  226:s       = 700.0000m  227:node_1  =  51.1871m
 + 227:s       = 700.0000m  228:node_1  =  51.1871m  228:s       = 700.0000m
 + 229:node_1  =  51.1871m  229:s       = 700.0000m  230:node_1  = 700.0000m
 + 230:s       = 699.9999m  231:node_1  =  11.8749m  231:node_2  =  62.5267m
 + 231:s       = 700.0000m  232:node_1  =  51.1871m  232:s       = 700.0000m
 + 233:node_1  = 700.0000m  233:node_2  = 699.9999m  233:s       = 699.9999m
 + 234:node_1  =   8.0286m  234:node_2  =  19.8895m  234:node_3  =  70.1730m
 + 234:s       = 700.0000m  235:node_1  =  11.8749m  235:node_2  =  62.5266m
 + 235:s       = 700.0000m  236:node_1  =  51.1871m  236:s       = 700.0000m
 + 237:node_1  = 700.0000m  237:node_2  = 700.0000m  237:node_3  = 699.9999m
 + 237:s       = 699.9999m  238:node_11 =  11.1535m  238:node_12 =  46.1300m
 + 238:node_21 =  35.5958m  238:node_31 =  35.5958m  238:out1    =  20.7200n
 + 238:out2    =  20.7200n  238:s1      = 464.7064m  238:s2      = 464.7064m
 + 238:s3      = 464.7064m  238:vdd_g1  = 464.7064m  239:node_1  =   8.0286m
 + 239:node_2  =  19.8895m  239:node_3  =  70.1730m  239:s       = 700.0000m
 + 240:node_1  =  11.8749m  240:node_2  =  62.5266m  240:s       = 700.0000m
 + 241:node_1  =  51.1871m  241:s       = 700.0000m  242:node_1  = 700.0000m
 + 242:node_2  = 700.0000m  242:node_3  = 699.9999m  242:s       = 699.9999m
 + 243:node_1  = 336.3704m  243:s       = 336.3696m  243:vdd_g1  = 336.3711m
 + 244:sel_n   =  37.7677n  245:in_2_n  = 699.9999m  246:in_2_n  = 699.9999m
 + 247:in_2_n  = 699.9999m  248:in_2_n  = 699.9999m  249:in_2_n  = 699.9999m
 + 250:in_2_n  = 699.9999m  251:in_2_n  = 699.9999m  252:in_2_n  = 699.9999m
 + 253:node_1  =  51.1871m  253:s       = 700.0000m  254:node_1  =  51.1871m
 + 254:s       = 700.0000m  255:node_1  =  51.1871m  255:s       = 700.0000m
 + 256:node_1  =  51.1871m  256:s       = 700.0000m  257:node_1  =  51.1871m
 + 257:s       = 700.0000m  258:node_1  = 700.0000m  258:s       = 699.9999m
 + 259:node_1  =  11.8749m  259:node_2  =  62.5267m  259:s       = 700.0000m
 + 260:node_1  =  51.1871m  260:s       = 700.0000m  261:node_1  = 700.0000m
 + 261:node_2  = 699.9999m  261:s       = 699.9999m  262:node_1  =   8.0286m
 + 262:node_2  =  19.8895m  262:node_3  =  70.1730m  262:s       = 700.0000m
 + 263:node_1  =  11.8749m  263:node_2  =  62.5266m  263:s       = 700.0000m
 + 264:node_1  =  51.1871m  264:s       = 700.0000m  265:node_1  = 700.0000m
 + 265:node_2  = 700.0000m  265:node_3  = 699.9999m  265:s       = 699.9999m
 + 266:node_11 =  11.8749m  266:node_12 =  62.5267m  266:node_21 =  51.1871m
 + 266:node_31 =  51.1871m  266:out1    =  31.5825n  266:out2    =  31.5825n
 + 266:s1      = 700.0000m  266:s2      = 700.0000m  266:s3      = 700.0000m
 + 266:vdd_g1  = 700.0000m  267:node_1  =   8.0286m  267:node_2  =  19.8894m
 + 267:node_3  =  70.1730m  267:s       = 700.0000m  268:node_1  =  11.8749m
 + 268:node_2  =  62.5266m  268:s       = 700.0000m  269:node_1  =  51.1871m
 + 269:s       = 700.0000m  270:node_1  = 700.0000m  270:node_2  = 700.0000m
 + 270:node_3  = 699.9999m  270:s       = 699.9999m  271:node_1  = 699.9999m
 + 271:s       = 699.9999m  271:vdd_g1  = 700.0000m  272:sel_n   = 700.0000m
 + 273:in_2_n  = 699.9999m  274:in_2_n  = 699.9999m  275:in_2_n  = 699.9999m
 + 276:in_2_n  = 699.9999m  277:in_2_n  = 699.9999m  278:in_2_n  = 699.9999m
 + 279:in_2_n  = 699.9999m  280:in_2_n  = 699.9999m  281:node_1  =  51.1871m
 + 281:s       = 700.0000m  282:node_1  =  51.1871m  282:s       = 700.0000m
 + 283:node_1  =  51.1871m  283:s       = 700.0000m  284:node_1  =  51.1871m
 + 284:s       = 700.0000m  285:node_1  =  51.1911m  285:s       = 700.0000m
 + 286:node_1  = 700.0000m  286:s       = 699.9999m  287:node_1  =  11.8751m
 + 287:node_2  =  62.5306m  287:s       = 700.0000m  288:node_1  =  51.1871m
 + 288:s       = 700.0000m  289:node_1  = 700.0000m  289:node_2  = 699.9999m
 + 289:s       = 699.9999m  290:node_1  =   8.0288m  290:node_2  =  19.8898m
 + 290:node_3  =  70.1773m  290:s       = 700.0000m  291:node_1  =  11.8749m
 + 291:node_2  =  62.5266m  291:s       = 700.0000m  292:node_1  =  51.1871m
 + 292:s       = 700.0000m  293:node_1  = 700.0000m  293:node_2  = 700.0000m
 + 293:node_3  = 699.9999m  293:s       = 699.9999m  294:node_11 =  11.8749m
 + 294:node_12 =  62.5267m  294:node_21 =  51.1910m  294:node_31 =  51.1871m
 + 294:out1    =  31.5824n  294:out2    =  31.5821n  294:s1      = 700.0000m
 + 294:s2      = 700.0000m  294:s3      = 700.0000m  294:vdd_g1  = 700.0000m
 + 295:node_1  =   8.0286m  295:node_2  =  19.8895m  295:node_3  =  70.1730m
 + 295:s       = 700.0000m  296:node_1  =  11.8749m  296:node_2  =  62.5266m
 + 296:s       = 700.0000m  297:node_1  =  51.1871m  297:s       = 700.0000m
 + 298:node_1  = 700.0000m  298:node_2  = 700.0000m  298:node_3  = 699.9999m
 + 298:s       = 699.9999m  299:node_1  = 699.9999m  299:s       = 699.9999m
 + 299:vdd_g1  = 700.0000m  300:sel_n   = 700.0000m  301:in_2_n  = 699.9857m
 + 302:in_2_n  = 699.9999m  303:in_2_n  = 699.9999m  304:in_2_n  = 699.9999m
 + 305:in_2_n  = 699.9999m  306:in_2_n  = 699.9999m  307:in_2_n  = 699.9999m
 + 308:in_2_n  = 699.9999m  309:node_1  =  51.1871m  309:s       = 700.0000m
 + 310:node_1  =  51.1871m  310:s       = 700.0000m  311:node_1  =  51.1871m
 + 311:s       = 700.0000m  312:node_1  =  51.1871m  312:s       = 700.0000m
 + 313:node_1  =  51.1911m  313:s       = 700.0000m  314:node_1  = 700.0000m
 + 314:s       = 699.9999m  315:node_1  =  11.8751m  315:node_2  =  62.5306m
 + 315:s       = 700.0000m  316:node_1  =  51.1871m  316:s       = 700.0000m
 + 317:node_1  = 700.0000m  317:node_2  = 699.9999m  317:s       = 699.9999m
 + 318:node_1  =   8.0288m  318:node_2  =  19.8898m  318:node_3  =  70.1773m
 + 318:s       = 700.0000m  319:node_1  =  11.8749m  319:node_2  =  62.5266m
 + 319:s       = 700.0000m  320:node_1  =  51.1871m  320:s       = 700.0000m
 + 321:node_1  = 700.0000m  321:node_2  = 700.0000m  321:node_3  = 699.9999m
 + 321:s       = 699.9999m  322:node_11 =  11.8749m  322:node_12 =  62.5266m
 + 322:node_21 =  51.1911m  322:node_31 =  51.1871m  322:out1    =  31.5824n
 + 322:out2    =  31.5821n  322:s1      = 700.0000m  322:s2      = 700.0000m
 + 322:s3      = 700.0000m  322:vdd_g1  = 700.0000m  323:node_1  =   8.0286m
 + 323:node_2  =  19.8895m  323:node_3  =  70.1730m  323:s       = 700.0000m
 + 324:node_1  =  11.8749m  324:node_2  =  62.5266m  324:s       = 700.0000m
 + 325:node_1  =  51.1871m  325:s       = 700.0000m  326:node_1  = 700.0000m
 + 326:node_2  = 700.0000m  326:node_3  = 699.9999m  326:s       = 699.9999m
 + 327:node_1  = 699.9999m  327:s       = 699.9999m  327:vdd_g1  = 700.0000m
 + 328:sel_n   = 700.0000m  329:in_2_n  = 699.9857m  330:in_2_n  = 699.9999m
 + 331:in_2_n  = 699.9999m  332:in_2_n  = 699.9999m

 ******  
 adder_test

 ****** transient analysis tnom=  25.000 temp=  25.000 ******
 critical_t= 172.6787p  targ=   1.6802n   trig=   1.5075n

          ***** job concluded
1****** HSPICE -- J-2014.09-2 64-BIT (Oct 22 2014) win64 ******                 
 ******  
 adder_test

 ****** job statistics summary tnom=  25.000 temp=  25.000 ******

  ******  HSPICE Threads Information  ******

  Command Line Threads Count :     3
  Available CPU Count        :     4
  Actual Threads Count       :     3


  ******  Circuit Statistics  ******
  # nodes       =    4330 # elements   =    1733
  # resistors   =       0 # capacitors =       0 # inductors   =       0
  # mutual_inds =       0 # vccs       =       0 # vcvs        =       0
  # cccs        =       0 # ccvs       =       0 # volt_srcs   =       3
  # curr_srcs   =       0 # diodes     =       0 # bjts        =       0
  # jfets       =       0 # mosfets    =    1730 # U elements  =       0
  # T elements  =       0 # W elements =       0 # B elements  =       0
  # S elements  =       0 # P elements =       0 # va device   =       0
  # vector_srcs =      98 # N elements =       0


  ******  Runtime Statistics (seconds)  ******

  analysis           time    # points   tot. iter  conv.iter
  op point          10.72           1        2600
  transient          1.65          27        1120         214 rev=         1
  readin             0.04
  errchk             0.36
  setup              0.07
  output             0.00


           peak memory used         80.76 megabytes
           total cpu time           12.85 seconds
           total elapsed time       12.90 seconds
           job started at     09:37:56 06/08/2022
           job ended   at     09:38:09 06/08/2022


  lic: Release hspice token(s) 
 lic: total license checkout elapse time:        0.05(s)
