 ****** HSPICE -- J-2014.09-2 64-BIT (Oct 22 2014) win64 ******                 
  Copyright (C) 2014 Synopsys, Inc. All Rights Reserved.                        
  Unpublished-rights reserved under US copyright laws.
  This program is protected by law and is subject to the
  terms and conditions of the license agreement from Synopsys.
  Use of this program is your acceptance to be bound by the
  license agreement. HSPICE is the trademark of Synopsys, Inc.
  Input File: adder_test.sp                                                     
  Command line options: -mt 2 -i adder_test.sp -o adder_test.lis
  lic:  
  lic: FLEXlm: v10.9.8 
  lic: USER:   渣渣基            HOSTNAME: DESKTOP-NPIU9RN 
  lic: HOSTID: "f430b9ae4e60 005056c00001 005056c00008 5413792f7072 00ff4a66f477
  00ffbbf96e68 00ffd5f
  lic: Using FLEXlm license file: 
  lic: 27000@DESKTOP-NPIU9RN 
  lic: Checkout 1 hspice 
  lic: License/Maintenance for hspice will expire on 30-dec-2030/2019.2019 
  lic: 1(in_use)/99(total) FLOATING license(s) on SERVER 27000@DESKTOP-NPIU9RN 
  lic:   
 Init: read install configuration file: C:\synopsys\Hspice_J-2014.09-2\meta.cfg
  **warning** (../PTM-MG/modelfiles\../modelfiles/lstp/7nfet.pm:4) Model nfet device geometries will not be checked against the limits set by lmin, lmax, nfinmin and nfinmax. To enable this check, add a period(.) to the model name(i.e. enable model selector).
  **info**  the obsolete option acct is ignored
 scientific notation:
 a=10**-18  f=10**-15  p=10**-12  n=10**-9  u=10**-6
 m=10**-3   k=10**3    x=10**6    g=10**9 
1****** HSPICE -- J-2014.09-2 64-BIT (Oct 22 2014) win64 ******                 
 ******  
 adder_test

 ****** circuit name directory
 circuit number to circuit name directory
   number circuitname                     definition         multiplier
        0 main circuit
        1 xadder_32_base.                 adder_32_base      1.00 
        2 xadder_32_base.xcla_4_1.        cla_4              1.00 
        3 xadder_32_base.xcla_4_2.        cla_4              1.00 
        4 xadder_32_base.xcla_4_3.        cla_4              1.00 
        5 xadder_32_base.xcla_4_4.        cla_4              1.00 
        6 xadder_32_base.xcla_4_5.        cla_4              1.00 
        7 xadder_32_base.xcla_4_6.        cla_4              1.00 
        8 xadder_32_base.xcla_4_7.        cla_4              1.00 
        9 xadder_32_base.xcla_4_8.        cla_4              1.00 
       10 xadder_32_base.xcla_4_1.xxor_p0.
                                            xor                1.00 
       11 xadder_32_base.xcla_4_1.xxor_p1.
                                            xor                1.00 
       12 xadder_32_base.xcla_4_1.xxor_p2.
                                            xor                1.00 
       13 xadder_32_base.xcla_4_1.xxor_p3.
                                            xor                1.00 
       14 xadder_32_base.xcla_4_1.xand2_g0.
                                            and2               1.00 
       15 xadder_32_base.xcla_4_1.xand2_g1.
                                            and2               1.00 
       16 xadder_32_base.xcla_4_1.xand2_g2.
                                            and2               1.00 
       17 xadder_32_base.xcla_4_1.xand2_g3.
                                            and2               1.00 
       18 xadder_32_base.xcla_4_1.xand2_c1.
                                            and2               1.00 
       19 xadder_32_base.xcla_4_1.xor2_c1.
                                            or2                1.00 
       20 xadder_32_base.xcla_4_1.xand3_c2.
                                            and3               1.00 
       21 xadder_32_base.xcla_4_1.xand2_c2.
                                            and2               1.00 
       22 xadder_32_base.xcla_4_1.xor3_c2.
                                            or3                1.00 
       23 xadder_32_base.xcla_4_1.xand4_c3.
                                            and4               1.00 
       24 xadder_32_base.xcla_4_1.xand3_c3.
                                            and3               1.00 
       25 xadder_32_base.xcla_4_1.xand2_c3.
                                            and2               1.00 
       26 xadder_32_base.xcla_4_1.xor4_c3.
                                            or4                1.00 
       27 xadder_32_base.xcla_4_1.xand5_c4.
                                            and5               1.00 
       28 xadder_32_base.xcla_4_1.xand4_c4.
                                            and4               1.00 
       29 xadder_32_base.xcla_4_1.xand3_c4.
                                            and3               1.00 
       30 xadder_32_base.xcla_4_1.xand2_c4.
                                            and2               1.00 
       31 xadder_32_base.xcla_4_1.xor5_c4.
                                            or5                1.00 
       32 xadder_32_base.xcla_4_1.xxor_s0.
                                            xor                1.00 
       33 xadder_32_base.xcla_4_1.xxor_s1.
                                            xor                1.00 
       34 xadder_32_base.xcla_4_1.xxor_s2.
                                            xor                1.00 
       35 xadder_32_base.xcla_4_1.xxor_s3.
                                            xor                1.00 
       36 xadder_32_base.xcla_4_2.xxor_p0.
                                            xor                1.00 
       37 xadder_32_base.xcla_4_2.xxor_p1.
                                            xor                1.00 
       38 xadder_32_base.xcla_4_2.xxor_p2.
                                            xor                1.00 
       39 xadder_32_base.xcla_4_2.xxor_p3.
                                            xor                1.00 
       40 xadder_32_base.xcla_4_2.xand2_g0.
                                            and2               1.00 
       41 xadder_32_base.xcla_4_2.xand2_g1.
                                            and2               1.00 
       42 xadder_32_base.xcla_4_2.xand2_g2.
                                            and2               1.00 
       43 xadder_32_base.xcla_4_2.xand2_g3.
                                            and2               1.00 
       44 xadder_32_base.xcla_4_2.xand2_c1.
                                            and2               1.00 
       45 xadder_32_base.xcla_4_2.xor2_c1.
                                            or2                1.00 
       46 xadder_32_base.xcla_4_2.xand3_c2.
                                            and3               1.00 
       47 xadder_32_base.xcla_4_2.xand2_c2.
                                            and2               1.00 
       48 xadder_32_base.xcla_4_2.xor3_c2.
                                            or3                1.00 
       49 xadder_32_base.xcla_4_2.xand4_c3.
                                            and4               1.00 
       50 xadder_32_base.xcla_4_2.xand3_c3.
                                            and3               1.00 
       51 xadder_32_base.xcla_4_2.xand2_c3.
                                            and2               1.00 
       52 xadder_32_base.xcla_4_2.xor4_c3.
                                            or4                1.00 
       53 xadder_32_base.xcla_4_2.xand5_c4.
                                            and5               1.00 
       54 xadder_32_base.xcla_4_2.xand4_c4.
                                            and4               1.00 
       55 xadder_32_base.xcla_4_2.xand3_c4.
                                            and3               1.00 
       56 xadder_32_base.xcla_4_2.xand2_c4.
                                            and2               1.00 
       57 xadder_32_base.xcla_4_2.xor5_c4.
                                            or5                1.00 
       58 xadder_32_base.xcla_4_2.xxor_s0.
                                            xor                1.00 
       59 xadder_32_base.xcla_4_2.xxor_s1.
                                            xor                1.00 
       60 xadder_32_base.xcla_4_2.xxor_s2.
                                            xor                1.00 
       61 xadder_32_base.xcla_4_2.xxor_s3.
                                            xor                1.00 
       62 xadder_32_base.xcla_4_3.xxor_p0.
                                            xor                1.00 
       63 xadder_32_base.xcla_4_3.xxor_p1.
                                            xor                1.00 
       64 xadder_32_base.xcla_4_3.xxor_p2.
                                            xor                1.00 
       65 xadder_32_base.xcla_4_3.xxor_p3.
                                            xor                1.00 
       66 xadder_32_base.xcla_4_3.xand2_g0.
                                            and2               1.00 
       67 xadder_32_base.xcla_4_3.xand2_g1.
                                            and2               1.00 
       68 xadder_32_base.xcla_4_3.xand2_g2.
                                            and2               1.00 
       69 xadder_32_base.xcla_4_3.xand2_g3.
                                            and2               1.00 
       70 xadder_32_base.xcla_4_3.xand2_c1.
                                            and2               1.00 
       71 xadder_32_base.xcla_4_3.xor2_c1.
                                            or2                1.00 
       72 xadder_32_base.xcla_4_3.xand3_c2.
                                            and3               1.00 
       73 xadder_32_base.xcla_4_3.xand2_c2.
                                            and2               1.00 
       74 xadder_32_base.xcla_4_3.xor3_c2.
                                            or3                1.00 
       75 xadder_32_base.xcla_4_3.xand4_c3.
                                            and4               1.00 
       76 xadder_32_base.xcla_4_3.xand3_c3.
                                            and3               1.00 
       77 xadder_32_base.xcla_4_3.xand2_c3.
                                            and2               1.00 
       78 xadder_32_base.xcla_4_3.xor4_c3.
                                            or4                1.00 
       79 xadder_32_base.xcla_4_3.xand5_c4.
                                            and5               1.00 
       80 xadder_32_base.xcla_4_3.xand4_c4.
                                            and4               1.00 
       81 xadder_32_base.xcla_4_3.xand3_c4.
                                            and3               1.00 
       82 xadder_32_base.xcla_4_3.xand2_c4.
                                            and2               1.00 
       83 xadder_32_base.xcla_4_3.xor5_c4.
                                            or5                1.00 
       84 xadder_32_base.xcla_4_3.xxor_s0.
                                            xor                1.00 
       85 xadder_32_base.xcla_4_3.xxor_s1.
                                            xor                1.00 
       86 xadder_32_base.xcla_4_3.xxor_s2.
                                            xor                1.00 
       87 xadder_32_base.xcla_4_3.xxor_s3.
                                            xor                1.00 
       88 xadder_32_base.xcla_4_4.xxor_p0.
                                            xor                1.00 
       89 xadder_32_base.xcla_4_4.xxor_p1.
                                            xor                1.00 
       90 xadder_32_base.xcla_4_4.xxor_p2.
                                            xor                1.00 
       91 xadder_32_base.xcla_4_4.xxor_p3.
                                            xor                1.00 
       92 xadder_32_base.xcla_4_4.xand2_g0.
                                            and2               1.00 
       93 xadder_32_base.xcla_4_4.xand2_g1.
                                            and2               1.00 
       94 xadder_32_base.xcla_4_4.xand2_g2.
                                            and2               1.00 
       95 xadder_32_base.xcla_4_4.xand2_g3.
                                            and2               1.00 
       96 xadder_32_base.xcla_4_4.xand2_c1.
                                            and2               1.00 
       97 xadder_32_base.xcla_4_4.xor2_c1.
                                            or2                1.00 
       98 xadder_32_base.xcla_4_4.xand3_c2.
                                            and3               1.00 
       99 xadder_32_base.xcla_4_4.xand2_c2.
                                            and2               1.00 
      100 xadder_32_base.xcla_4_4.xor3_c2.
                                            or3                1.00 
      101 xadder_32_base.xcla_4_4.xand4_c3.
                                            and4               1.00 
      102 xadder_32_base.xcla_4_4.xand3_c3.
                                            and3               1.00 
      103 xadder_32_base.xcla_4_4.xand2_c3.
                                            and2               1.00 
      104 xadder_32_base.xcla_4_4.xor4_c3.
                                            or4                1.00 
      105 xadder_32_base.xcla_4_4.xand5_c4.
                                            and5               1.00 
      106 xadder_32_base.xcla_4_4.xand4_c4.
                                            and4               1.00 
      107 xadder_32_base.xcla_4_4.xand3_c4.
                                            and3               1.00 
      108 xadder_32_base.xcla_4_4.xand2_c4.
                                            and2               1.00 
      109 xadder_32_base.xcla_4_4.xor5_c4.
                                            or5                1.00 
      110 xadder_32_base.xcla_4_4.xxor_s0.
                                            xor                1.00 
      111 xadder_32_base.xcla_4_4.xxor_s1.
                                            xor                1.00 
      112 xadder_32_base.xcla_4_4.xxor_s2.
                                            xor                1.00 
      113 xadder_32_base.xcla_4_4.xxor_s3.
                                            xor                1.00 
      114 xadder_32_base.xcla_4_5.xxor_p0.
                                            xor                1.00 
      115 xadder_32_base.xcla_4_5.xxor_p1.
                                            xor                1.00 
      116 xadder_32_base.xcla_4_5.xxor_p2.
                                            xor                1.00 
      117 xadder_32_base.xcla_4_5.xxor_p3.
                                            xor                1.00 
      118 xadder_32_base.xcla_4_5.xand2_g0.
                                            and2               1.00 
      119 xadder_32_base.xcla_4_5.xand2_g1.
                                            and2               1.00 
      120 xadder_32_base.xcla_4_5.xand2_g2.
                                            and2               1.00 
      121 xadder_32_base.xcla_4_5.xand2_g3.
                                            and2               1.00 
      122 xadder_32_base.xcla_4_5.xand2_c1.
                                            and2               1.00 
      123 xadder_32_base.xcla_4_5.xor2_c1.
                                            or2                1.00 
      124 xadder_32_base.xcla_4_5.xand3_c2.
                                            and3               1.00 
      125 xadder_32_base.xcla_4_5.xand2_c2.
                                            and2               1.00 
      126 xadder_32_base.xcla_4_5.xor3_c2.
                                            or3                1.00 
      127 xadder_32_base.xcla_4_5.xand4_c3.
                                            and4               1.00 
      128 xadder_32_base.xcla_4_5.xand3_c3.
                                            and3               1.00 
      129 xadder_32_base.xcla_4_5.xand2_c3.
                                            and2               1.00 
      130 xadder_32_base.xcla_4_5.xor4_c3.
                                            or4                1.00 
      131 xadder_32_base.xcla_4_5.xand5_c4.
                                            and5               1.00 
      132 xadder_32_base.xcla_4_5.xand4_c4.
                                            and4               1.00 
      133 xadder_32_base.xcla_4_5.xand3_c4.
                                            and3               1.00 
      134 xadder_32_base.xcla_4_5.xand2_c4.
                                            and2               1.00 
      135 xadder_32_base.xcla_4_5.xor5_c4.
                                            or5                1.00 
      136 xadder_32_base.xcla_4_5.xxor_s0.
                                            xor                1.00 
      137 xadder_32_base.xcla_4_5.xxor_s1.
                                            xor                1.00 
      138 xadder_32_base.xcla_4_5.xxor_s2.
                                            xor                1.00 
      139 xadder_32_base.xcla_4_5.xxor_s3.
                                            xor                1.00 
      140 xadder_32_base.xcla_4_6.xxor_p0.
                                            xor                1.00 
      141 xadder_32_base.xcla_4_6.xxor_p1.
                                            xor                1.00 
      142 xadder_32_base.xcla_4_6.xxor_p2.
                                            xor                1.00 
      143 xadder_32_base.xcla_4_6.xxor_p3.
                                            xor                1.00 
      144 xadder_32_base.xcla_4_6.xand2_g0.
                                            and2               1.00 
      145 xadder_32_base.xcla_4_6.xand2_g1.
                                            and2               1.00 
      146 xadder_32_base.xcla_4_6.xand2_g2.
                                            and2               1.00 
      147 xadder_32_base.xcla_4_6.xand2_g3.
                                            and2               1.00 
      148 xadder_32_base.xcla_4_6.xand2_c1.
                                            and2               1.00 
      149 xadder_32_base.xcla_4_6.xor2_c1.
                                            or2                1.00 
      150 xadder_32_base.xcla_4_6.xand3_c2.
                                            and3               1.00 
      151 xadder_32_base.xcla_4_6.xand2_c2.
                                            and2               1.00 
      152 xadder_32_base.xcla_4_6.xor3_c2.
                                            or3                1.00 
      153 xadder_32_base.xcla_4_6.xand4_c3.
                                            and4               1.00 
      154 xadder_32_base.xcla_4_6.xand3_c3.
                                            and3               1.00 
      155 xadder_32_base.xcla_4_6.xand2_c3.
                                            and2               1.00 
      156 xadder_32_base.xcla_4_6.xor4_c3.
                                            or4                1.00 
      157 xadder_32_base.xcla_4_6.xand5_c4.
                                            and5               1.00 
      158 xadder_32_base.xcla_4_6.xand4_c4.
                                            and4               1.00 
      159 xadder_32_base.xcla_4_6.xand3_c4.
                                            and3               1.00 
      160 xadder_32_base.xcla_4_6.xand2_c4.
                                            and2               1.00 
      161 xadder_32_base.xcla_4_6.xor5_c4.
                                            or5                1.00 
      162 xadder_32_base.xcla_4_6.xxor_s0.
                                            xor                1.00 
      163 xadder_32_base.xcla_4_6.xxor_s1.
                                            xor                1.00 
      164 xadder_32_base.xcla_4_6.xxor_s2.
                                            xor                1.00 
      165 xadder_32_base.xcla_4_6.xxor_s3.
                                            xor                1.00 
      166 xadder_32_base.xcla_4_7.xxor_p0.
                                            xor                1.00 
      167 xadder_32_base.xcla_4_7.xxor_p1.
                                            xor                1.00 
      168 xadder_32_base.xcla_4_7.xxor_p2.
                                            xor                1.00 
      169 xadder_32_base.xcla_4_7.xxor_p3.
                                            xor                1.00 
      170 xadder_32_base.xcla_4_7.xand2_g0.
                                            and2               1.00 
      171 xadder_32_base.xcla_4_7.xand2_g1.
                                            and2               1.00 
      172 xadder_32_base.xcla_4_7.xand2_g2.
                                            and2               1.00 
      173 xadder_32_base.xcla_4_7.xand2_g3.
                                            and2               1.00 
      174 xadder_32_base.xcla_4_7.xand2_c1.
                                            and2               1.00 
      175 xadder_32_base.xcla_4_7.xor2_c1.
                                            or2                1.00 
      176 xadder_32_base.xcla_4_7.xand3_c2.
                                            and3               1.00 
      177 xadder_32_base.xcla_4_7.xand2_c2.
                                            and2               1.00 
      178 xadder_32_base.xcla_4_7.xor3_c2.
                                            or3                1.00 
      179 xadder_32_base.xcla_4_7.xand4_c3.
                                            and4               1.00 
      180 xadder_32_base.xcla_4_7.xand3_c3.
                                            and3               1.00 
      181 xadder_32_base.xcla_4_7.xand2_c3.
                                            and2               1.00 
      182 xadder_32_base.xcla_4_7.xor4_c3.
                                            or4                1.00 
      183 xadder_32_base.xcla_4_7.xand5_c4.
                                            and5               1.00 
      184 xadder_32_base.xcla_4_7.xand4_c4.
                                            and4               1.00 
      185 xadder_32_base.xcla_4_7.xand3_c4.
                                            and3               1.00 
      186 xadder_32_base.xcla_4_7.xand2_c4.
                                            and2               1.00 
      187 xadder_32_base.xcla_4_7.xor5_c4.
                                            or5                1.00 
      188 xadder_32_base.xcla_4_7.xxor_s0.
                                            xor                1.00 
      189 xadder_32_base.xcla_4_7.xxor_s1.
                                            xor                1.00 
      190 xadder_32_base.xcla_4_7.xxor_s2.
                                            xor                1.00 
      191 xadder_32_base.xcla_4_7.xxor_s3.
                                            xor                1.00 
      192 xadder_32_base.xcla_4_8.xxor_p0.
                                            xor                1.00 
      193 xadder_32_base.xcla_4_8.xxor_p1.
                                            xor                1.00 
      194 xadder_32_base.xcla_4_8.xxor_p2.
                                            xor                1.00 
      195 xadder_32_base.xcla_4_8.xxor_p3.
                                            xor                1.00 
      196 xadder_32_base.xcla_4_8.xand2_g0.
                                            and2               1.00 
      197 xadder_32_base.xcla_4_8.xand2_g1.
                                            and2               1.00 
      198 xadder_32_base.xcla_4_8.xand2_g2.
                                            and2               1.00 
      199 xadder_32_base.xcla_4_8.xand2_g3.
                                            and2               1.00 
      200 xadder_32_base.xcla_4_8.xand2_c1.
                                            and2               1.00 
      201 xadder_32_base.xcla_4_8.xor2_c1.
                                            or2                1.00 
      202 xadder_32_base.xcla_4_8.xand3_c2.
                                            and3               1.00 
      203 xadder_32_base.xcla_4_8.xand2_c2.
                                            and2               1.00 
      204 xadder_32_base.xcla_4_8.xor3_c2.
                                            or3                1.00 
      205 xadder_32_base.xcla_4_8.xand4_c3.
                                            and4               1.00 
      206 xadder_32_base.xcla_4_8.xand3_c3.
                                            and3               1.00 
      207 xadder_32_base.xcla_4_8.xand2_c3.
                                            and2               1.00 
      208 xadder_32_base.xcla_4_8.xor4_c3.
                                            or4                1.00 
      209 xadder_32_base.xcla_4_8.xand5_c4.
                                            and5               1.00 
      210 xadder_32_base.xcla_4_8.xand4_c4.
                                            and4               1.00 
      211 xadder_32_base.xcla_4_8.xand3_c4.
                                            and3               1.00 
      212 xadder_32_base.xcla_4_8.xand2_c4.
                                            and2               1.00 
      213 xadder_32_base.xcla_4_8.xor5_c4.
                                            or5                1.00 
      214 xadder_32_base.xcla_4_8.xxor_s0.
                                            xor                1.00 
      215 xadder_32_base.xcla_4_8.xxor_s1.
                                            xor                1.00 
      216 xadder_32_base.xcla_4_8.xxor_s2.
                                            xor                1.00 
      217 xadder_32_base.xcla_4_8.xxor_s3.
                                            xor                1.00 
      218 xadder_32_base.xcla_4_1.xxor_p0.xpfet_1.
                                            pfet               1.00 
      219 xadder_32_base.xcla_4_1.xxor_p0.xpfet_2.
                                            pfet               1.00 
      220 xadder_32_base.xcla_4_1.xxor_p0.xnfet_1.
                                            nfet               1.00 
      221 xadder_32_base.xcla_4_1.xxor_p0.xnfet_2.
                                            nfet               1.00 
      222 xadder_32_base.xcla_4_1.xxor_p0.xpfet_3.
                                            pfet               1.00 
      223 xadder_32_base.xcla_4_1.xxor_p0.xpfet_4.
                                            pfet               1.00 
      224 xadder_32_base.xcla_4_1.xxor_p0.xpfet_5.
                                            pfet               1.00 
      225 xadder_32_base.xcla_4_1.xxor_p0.xnfet_3.
                                            nfet               1.00 
      226 xadder_32_base.xcla_4_1.xxor_p0.xnfet_4.
                                            nfet               1.00 
      227 xadder_32_base.xcla_4_1.xxor_p0.xnfet_5.
                                            nfet               1.00 
      228 xadder_32_base.xcla_4_1.xxor_p1.xpfet_1.
                                            pfet               1.00 
      229 xadder_32_base.xcla_4_1.xxor_p1.xpfet_2.
                                            pfet               1.00 
      230 xadder_32_base.xcla_4_1.xxor_p1.xnfet_1.
                                            nfet               1.00 
      231 xadder_32_base.xcla_4_1.xxor_p1.xnfet_2.
                                            nfet               1.00 
      232 xadder_32_base.xcla_4_1.xxor_p1.xpfet_3.
                                            pfet               1.00 
      233 xadder_32_base.xcla_4_1.xxor_p1.xpfet_4.
                                            pfet               1.00 
      234 xadder_32_base.xcla_4_1.xxor_p1.xpfet_5.
                                            pfet               1.00 
      235 xadder_32_base.xcla_4_1.xxor_p1.xnfet_3.
                                            nfet               1.00 
      236 xadder_32_base.xcla_4_1.xxor_p1.xnfet_4.
                                            nfet               1.00 
      237 xadder_32_base.xcla_4_1.xxor_p1.xnfet_5.
                                            nfet               1.00 
      238 xadder_32_base.xcla_4_1.xxor_p2.xpfet_1.
                                            pfet               1.00 
      239 xadder_32_base.xcla_4_1.xxor_p2.xpfet_2.
                                            pfet               1.00 
      240 xadder_32_base.xcla_4_1.xxor_p2.xnfet_1.
                                            nfet               1.00 
      241 xadder_32_base.xcla_4_1.xxor_p2.xnfet_2.
                                            nfet               1.00 
      242 xadder_32_base.xcla_4_1.xxor_p2.xpfet_3.
                                            pfet               1.00 
      243 xadder_32_base.xcla_4_1.xxor_p2.xpfet_4.
                                            pfet               1.00 
      244 xadder_32_base.xcla_4_1.xxor_p2.xpfet_5.
                                            pfet               1.00 
      245 xadder_32_base.xcla_4_1.xxor_p2.xnfet_3.
                                            nfet               1.00 
      246 xadder_32_base.xcla_4_1.xxor_p2.xnfet_4.
                                            nfet               1.00 
      247 xadder_32_base.xcla_4_1.xxor_p2.xnfet_5.
                                            nfet               1.00 
      248 xadder_32_base.xcla_4_1.xxor_p3.xpfet_1.
                                            pfet               1.00 
      249 xadder_32_base.xcla_4_1.xxor_p3.xpfet_2.
                                            pfet               1.00 
      250 xadder_32_base.xcla_4_1.xxor_p3.xnfet_1.
                                            nfet               1.00 
      251 xadder_32_base.xcla_4_1.xxor_p3.xnfet_2.
                                            nfet               1.00 
      252 xadder_32_base.xcla_4_1.xxor_p3.xpfet_3.
                                            pfet               1.00 
      253 xadder_32_base.xcla_4_1.xxor_p3.xpfet_4.
                                            pfet               1.00 
      254 xadder_32_base.xcla_4_1.xxor_p3.xpfet_5.
                                            pfet               1.00 
      255 xadder_32_base.xcla_4_1.xxor_p3.xnfet_3.
                                            nfet               1.00 
      256 xadder_32_base.xcla_4_1.xxor_p3.xnfet_4.
                                            nfet               1.00 
      257 xadder_32_base.xcla_4_1.xxor_p3.xnfet_5.
                                            nfet               1.00 
      258 xadder_32_base.xcla_4_1.xand2_g0.xpfet_1.
                                            pfet               1.00 
      259 xadder_32_base.xcla_4_1.xand2_g0.xpfet_2.
                                            pfet               1.00 
      260 xadder_32_base.xcla_4_1.xand2_g0.xnfet_1.
                                            nfet               1.00 
      261 xadder_32_base.xcla_4_1.xand2_g0.xnfet_2.
                                            nfet               1.00 
      262 xadder_32_base.xcla_4_1.xand2_g0.xinv_size_1.
                                            inv_size_1         1.00 
      263 xadder_32_base.xcla_4_1.xand2_g1.xpfet_1.
                                            pfet               1.00 
      264 xadder_32_base.xcla_4_1.xand2_g1.xpfet_2.
                                            pfet               1.00 
      265 xadder_32_base.xcla_4_1.xand2_g1.xnfet_1.
                                            nfet               1.00 
      266 xadder_32_base.xcla_4_1.xand2_g1.xnfet_2.
                                            nfet               1.00 
      267 xadder_32_base.xcla_4_1.xand2_g1.xinv_size_1.
                                            inv_size_1         1.00 
      268 xadder_32_base.xcla_4_1.xand2_g2.xpfet_1.
                                            pfet               1.00 
      269 xadder_32_base.xcla_4_1.xand2_g2.xpfet_2.
                                            pfet               1.00 
      270 xadder_32_base.xcla_4_1.xand2_g2.xnfet_1.
                                            nfet               1.00 
      271 xadder_32_base.xcla_4_1.xand2_g2.xnfet_2.
                                            nfet               1.00 
      272 xadder_32_base.xcla_4_1.xand2_g2.xinv_size_1.
                                            inv_size_1         1.00 
      273 xadder_32_base.xcla_4_1.xand2_g3.xpfet_1.
                                            pfet               1.00 
      274 xadder_32_base.xcla_4_1.xand2_g3.xpfet_2.
                                            pfet               1.00 
      275 xadder_32_base.xcla_4_1.xand2_g3.xnfet_1.
                                            nfet               1.00 
      276 xadder_32_base.xcla_4_1.xand2_g3.xnfet_2.
                                            nfet               1.00 
      277 xadder_32_base.xcla_4_1.xand2_g3.xinv_size_1.
                                            inv_size_1         1.00 
      278 xadder_32_base.xcla_4_1.xand2_c1.xpfet_1.
                                            pfet               1.00 
      279 xadder_32_base.xcla_4_1.xand2_c1.xpfet_2.
                                            pfet               1.00 
      280 xadder_32_base.xcla_4_1.xand2_c1.xnfet_1.
                                            nfet               1.00 
      281 xadder_32_base.xcla_4_1.xand2_c1.xnfet_2.
                                            nfet               1.00 
      282 xadder_32_base.xcla_4_1.xand2_c1.xinv_size_1.
                                            inv_size_1         1.00 
      283 xadder_32_base.xcla_4_1.xor2_c1.xpfet_1.
                                            pfet               1.00 
      284 xadder_32_base.xcla_4_1.xor2_c1.xpfet_2.
                                            pfet               1.00 
      285 xadder_32_base.xcla_4_1.xor2_c1.xnfet_1.
                                            nfet               1.00 
      286 xadder_32_base.xcla_4_1.xor2_c1.xnfet_2.
                                            nfet               1.00 
      287 xadder_32_base.xcla_4_1.xor2_c1.xinv_size_1.
                                            inv_size_1         1.00 
      288 xadder_32_base.xcla_4_1.xand3_c2.xpfet_1.
                                            pfet               1.00 
      289 xadder_32_base.xcla_4_1.xand3_c2.xpfet_2.
                                            pfet               1.00 
      290 xadder_32_base.xcla_4_1.xand3_c2.xpfet_3.
                                            pfet               1.00 
      291 xadder_32_base.xcla_4_1.xand3_c2.xnfet_1.
                                            nfet               1.00 
      292 xadder_32_base.xcla_4_1.xand3_c2.xnfet_2.
                                            nfet               1.00 
      293 xadder_32_base.xcla_4_1.xand3_c2.xnfet_3.
                                            nfet               1.00 
      294 xadder_32_base.xcla_4_1.xand3_c2.xinv_size_1.
                                            inv_size_1         1.00 
      295 xadder_32_base.xcla_4_1.xand2_c2.xpfet_1.
                                            pfet               1.00 
      296 xadder_32_base.xcla_4_1.xand2_c2.xpfet_2.
                                            pfet               1.00 
      297 xadder_32_base.xcla_4_1.xand2_c2.xnfet_1.
                                            nfet               1.00 
      298 xadder_32_base.xcla_4_1.xand2_c2.xnfet_2.
                                            nfet               1.00 
      299 xadder_32_base.xcla_4_1.xand2_c2.xinv_size_1.
                                            inv_size_1         1.00 
      300 xadder_32_base.xcla_4_1.xor3_c2.xpfet_1.
                                            pfet               1.00 
      301 xadder_32_base.xcla_4_1.xor3_c2.xpfet_2.
                                            pfet               1.00 
      302 xadder_32_base.xcla_4_1.xor3_c2.xpfet_3.
                                            pfet               1.00 
      303 xadder_32_base.xcla_4_1.xor3_c2.xnfet_1.
                                            nfet               1.00 
      304 xadder_32_base.xcla_4_1.xor3_c2.xnfet_2.
                                            nfet               1.00 
      305 xadder_32_base.xcla_4_1.xor3_c2.xnfet_3.
                                            nfet               1.00 
      306 xadder_32_base.xcla_4_1.xor3_c2.xinv_size_1.
                                            inv_size_1         1.00 
      307 xadder_32_base.xcla_4_1.xand4_c3.xpfet_1.
                                            pfet               1.00 
      308 xadder_32_base.xcla_4_1.xand4_c3.xpfet_2.
                                            pfet               1.00 
      309 xadder_32_base.xcla_4_1.xand4_c3.xpfet_3.
                                            pfet               1.00 
      310 xadder_32_base.xcla_4_1.xand4_c3.xpfet_4.
                                            pfet               1.00 
      311 xadder_32_base.xcla_4_1.xand4_c3.xnfet_1.
                                            nfet               1.00 
      312 xadder_32_base.xcla_4_1.xand4_c3.xnfet_2.
                                            nfet               1.00 
      313 xadder_32_base.xcla_4_1.xand4_c3.xnfet_3.
                                            nfet               1.00 
      314 xadder_32_base.xcla_4_1.xand4_c3.xnfet_4.
                                            nfet               1.00 
      315 xadder_32_base.xcla_4_1.xand4_c3.xinv_size_1.
                                            inv_size_1         1.00 
      316 xadder_32_base.xcla_4_1.xand3_c3.xpfet_1.
                                            pfet               1.00 
      317 xadder_32_base.xcla_4_1.xand3_c3.xpfet_2.
                                            pfet               1.00 
      318 xadder_32_base.xcla_4_1.xand3_c3.xpfet_3.
                                            pfet               1.00 
      319 xadder_32_base.xcla_4_1.xand3_c3.xnfet_1.
                                            nfet               1.00 
      320 xadder_32_base.xcla_4_1.xand3_c3.xnfet_2.
                                            nfet               1.00 
      321 xadder_32_base.xcla_4_1.xand3_c3.xnfet_3.
                                            nfet               1.00 
      322 xadder_32_base.xcla_4_1.xand3_c3.xinv_size_1.
                                            inv_size_1         1.00 
      323 xadder_32_base.xcla_4_1.xand2_c3.xpfet_1.
                                            pfet               1.00 
      324 xadder_32_base.xcla_4_1.xand2_c3.xpfet_2.
                                            pfet               1.00 
      325 xadder_32_base.xcla_4_1.xand2_c3.xnfet_1.
                                            nfet               1.00 
      326 xadder_32_base.xcla_4_1.xand2_c3.xnfet_2.
                                            nfet               1.00 
      327 xadder_32_base.xcla_4_1.xand2_c3.xinv_size_1.
                                            inv_size_1         1.00 
      328 xadder_32_base.xcla_4_1.xor4_c3.xpfet_1.
                                            pfet               1.00 
      329 xadder_32_base.xcla_4_1.xor4_c3.xpfet_2.
                                            pfet               1.00 
      330 xadder_32_base.xcla_4_1.xor4_c3.xpfet_3.
                                            pfet               1.00 
      331 xadder_32_base.xcla_4_1.xor4_c3.xpfet_4.
                                            pfet               1.00 
      332 xadder_32_base.xcla_4_1.xor4_c3.xnfet_1.
                                            nfet               1.00 
      333 xadder_32_base.xcla_4_1.xor4_c3.xnfet_2.
                                            nfet               1.00 
      334 xadder_32_base.xcla_4_1.xor4_c3.xnfet_3.
                                            nfet               1.00 
      335 xadder_32_base.xcla_4_1.xor4_c3.xnfet_4.
                                            nfet               1.00 
      336 xadder_32_base.xcla_4_1.xor4_c3.xinv_size_1.
                                            inv_size_1         1.00 
      337 xadder_32_base.xcla_4_1.xand5_c4.xpfet_1.
                                            pfet               1.00 
      338 xadder_32_base.xcla_4_1.xand5_c4.xpfet_2.
                                            pfet               1.00 
      339 xadder_32_base.xcla_4_1.xand5_c4.xpfet_3.
                                            pfet               1.00 
      340 xadder_32_base.xcla_4_1.xand5_c4.xpfet_4.
                                            pfet               1.00 
      341 xadder_32_base.xcla_4_1.xand5_c4.xpfet_5.
                                            pfet               1.00 
      342 xadder_32_base.xcla_4_1.xand5_c4.xnfet_1.
                                            nfet               1.00 
      343 xadder_32_base.xcla_4_1.xand5_c4.xnfet_2.
                                            nfet               1.00 
      344 xadder_32_base.xcla_4_1.xand5_c4.xnfet_3.
                                            nfet               1.00 
      345 xadder_32_base.xcla_4_1.xand5_c4.xnfet_4.
                                            nfet               1.00 
      346 xadder_32_base.xcla_4_1.xand5_c4.xnfet_5.
                                            nfet               1.00 
      347 xadder_32_base.xcla_4_1.xand5_c4.xinv_size_1.
                                            inv_size_1         1.00 
      348 xadder_32_base.xcla_4_1.xand4_c4.xpfet_1.
                                            pfet               1.00 
      349 xadder_32_base.xcla_4_1.xand4_c4.xpfet_2.
                                            pfet               1.00 
      350 xadder_32_base.xcla_4_1.xand4_c4.xpfet_3.
                                            pfet               1.00 
      351 xadder_32_base.xcla_4_1.xand4_c4.xpfet_4.
                                            pfet               1.00 
      352 xadder_32_base.xcla_4_1.xand4_c4.xnfet_1.
                                            nfet               1.00 
      353 xadder_32_base.xcla_4_1.xand4_c4.xnfet_2.
                                            nfet               1.00 
      354 xadder_32_base.xcla_4_1.xand4_c4.xnfet_3.
                                            nfet               1.00 
      355 xadder_32_base.xcla_4_1.xand4_c4.xnfet_4.
                                            nfet               1.00 
      356 xadder_32_base.xcla_4_1.xand4_c4.xinv_size_1.
                                            inv_size_1         1.00 
      357 xadder_32_base.xcla_4_1.xand3_c4.xpfet_1.
                                            pfet               1.00 
      358 xadder_32_base.xcla_4_1.xand3_c4.xpfet_2.
                                            pfet               1.00 
      359 xadder_32_base.xcla_4_1.xand3_c4.xpfet_3.
                                            pfet               1.00 
      360 xadder_32_base.xcla_4_1.xand3_c4.xnfet_1.
                                            nfet               1.00 
      361 xadder_32_base.xcla_4_1.xand3_c4.xnfet_2.
                                            nfet               1.00 
      362 xadder_32_base.xcla_4_1.xand3_c4.xnfet_3.
                                            nfet               1.00 
      363 xadder_32_base.xcla_4_1.xand3_c4.xinv_size_1.
                                            inv_size_1         1.00 
      364 xadder_32_base.xcla_4_1.xand2_c4.xpfet_1.
                                            pfet               1.00 
      365 xadder_32_base.xcla_4_1.xand2_c4.xpfet_2.
                                            pfet               1.00 
      366 xadder_32_base.xcla_4_1.xand2_c4.xnfet_1.
                                            nfet               1.00 
      367 xadder_32_base.xcla_4_1.xand2_c4.xnfet_2.
                                            nfet               1.00 
      368 xadder_32_base.xcla_4_1.xand2_c4.xinv_size_1.
                                            inv_size_1         1.00 
      369 xadder_32_base.xcla_4_1.xor5_c4.xpfet_1.
                                            pfet               1.00 
      370 xadder_32_base.xcla_4_1.xor5_c4.xpfet_2.
                                            pfet               1.00 
      371 xadder_32_base.xcla_4_1.xor5_c4.xpfet_3.
                                            pfet               1.00 
      372 xadder_32_base.xcla_4_1.xor5_c4.xpfet_4.
                                            pfet               1.00 
      373 xadder_32_base.xcla_4_1.xor5_c4.xpfet_5.
                                            pfet               1.00 
      374 xadder_32_base.xcla_4_1.xor5_c4.xnfet_1.
                                            nfet               1.00 
      375 xadder_32_base.xcla_4_1.xor5_c4.xnfet_2.
                                            nfet               1.00 
      376 xadder_32_base.xcla_4_1.xor5_c4.xnfet_3.
                                            nfet               1.00 
      377 xadder_32_base.xcla_4_1.xor5_c4.xnfet_4.
                                            nfet               1.00 
      378 xadder_32_base.xcla_4_1.xor5_c4.xnfet_5.
                                            nfet               1.00 
      379 xadder_32_base.xcla_4_1.xor5_c4.xinv_size_1.
                                            inv_size_1         1.00 
      380 xadder_32_base.xcla_4_1.xxor_s0.xpfet_1.
                                            pfet               1.00 
      381 xadder_32_base.xcla_4_1.xxor_s0.xpfet_2.
                                            pfet               1.00 
      382 xadder_32_base.xcla_4_1.xxor_s0.xnfet_1.
                                            nfet               1.00 
      383 xadder_32_base.xcla_4_1.xxor_s0.xnfet_2.
                                            nfet               1.00 
      384 xadder_32_base.xcla_4_1.xxor_s0.xpfet_3.
                                            pfet               1.00 
      385 xadder_32_base.xcla_4_1.xxor_s0.xpfet_4.
                                            pfet               1.00 
      386 xadder_32_base.xcla_4_1.xxor_s0.xpfet_5.
                                            pfet               1.00 
      387 xadder_32_base.xcla_4_1.xxor_s0.xnfet_3.
                                            nfet               1.00 
      388 xadder_32_base.xcla_4_1.xxor_s0.xnfet_4.
                                            nfet               1.00 
      389 xadder_32_base.xcla_4_1.xxor_s0.xnfet_5.
                                            nfet               1.00 
      390 xadder_32_base.xcla_4_1.xxor_s1.xpfet_1.
                                            pfet               1.00 
      391 xadder_32_base.xcla_4_1.xxor_s1.xpfet_2.
                                            pfet               1.00 
      392 xadder_32_base.xcla_4_1.xxor_s1.xnfet_1.
                                            nfet               1.00 
      393 xadder_32_base.xcla_4_1.xxor_s1.xnfet_2.
                                            nfet               1.00 
      394 xadder_32_base.xcla_4_1.xxor_s1.xpfet_3.
                                            pfet               1.00 
      395 xadder_32_base.xcla_4_1.xxor_s1.xpfet_4.
                                            pfet               1.00 
      396 xadder_32_base.xcla_4_1.xxor_s1.xpfet_5.
                                            pfet               1.00 
      397 xadder_32_base.xcla_4_1.xxor_s1.xnfet_3.
                                            nfet               1.00 
      398 xadder_32_base.xcla_4_1.xxor_s1.xnfet_4.
                                            nfet               1.00 
      399 xadder_32_base.xcla_4_1.xxor_s1.xnfet_5.
                                            nfet               1.00 
      400 xadder_32_base.xcla_4_1.xxor_s2.xpfet_1.
                                            pfet               1.00 
      401 xadder_32_base.xcla_4_1.xxor_s2.xpfet_2.
                                            pfet               1.00 
      402 xadder_32_base.xcla_4_1.xxor_s2.xnfet_1.
                                            nfet               1.00 
      403 xadder_32_base.xcla_4_1.xxor_s2.xnfet_2.
                                            nfet               1.00 
      404 xadder_32_base.xcla_4_1.xxor_s2.xpfet_3.
                                            pfet               1.00 
      405 xadder_32_base.xcla_4_1.xxor_s2.xpfet_4.
                                            pfet               1.00 
      406 xadder_32_base.xcla_4_1.xxor_s2.xpfet_5.
                                            pfet               1.00 
      407 xadder_32_base.xcla_4_1.xxor_s2.xnfet_3.
                                            nfet               1.00 
      408 xadder_32_base.xcla_4_1.xxor_s2.xnfet_4.
                                            nfet               1.00 
      409 xadder_32_base.xcla_4_1.xxor_s2.xnfet_5.
                                            nfet               1.00 
      410 xadder_32_base.xcla_4_1.xxor_s3.xpfet_1.
                                            pfet               1.00 
      411 xadder_32_base.xcla_4_1.xxor_s3.xpfet_2.
                                            pfet               1.00 
      412 xadder_32_base.xcla_4_1.xxor_s3.xnfet_1.
                                            nfet               1.00 
      413 xadder_32_base.xcla_4_1.xxor_s3.xnfet_2.
                                            nfet               1.00 
      414 xadder_32_base.xcla_4_1.xxor_s3.xpfet_3.
                                            pfet               1.00 
      415 xadder_32_base.xcla_4_1.xxor_s3.xpfet_4.
                                            pfet               1.00 
      416 xadder_32_base.xcla_4_1.xxor_s3.xpfet_5.
                                            pfet               1.00 
      417 xadder_32_base.xcla_4_1.xxor_s3.xnfet_3.
                                            nfet               1.00 
      418 xadder_32_base.xcla_4_1.xxor_s3.xnfet_4.
                                            nfet               1.00 
      419 xadder_32_base.xcla_4_1.xxor_s3.xnfet_5.
                                            nfet               1.00 
      420 xadder_32_base.xcla_4_2.xxor_p0.xpfet_1.
                                            pfet               1.00 
      421 xadder_32_base.xcla_4_2.xxor_p0.xpfet_2.
                                            pfet               1.00 
      422 xadder_32_base.xcla_4_2.xxor_p0.xnfet_1.
                                            nfet               1.00 
      423 xadder_32_base.xcla_4_2.xxor_p0.xnfet_2.
                                            nfet               1.00 
      424 xadder_32_base.xcla_4_2.xxor_p0.xpfet_3.
                                            pfet               1.00 
      425 xadder_32_base.xcla_4_2.xxor_p0.xpfet_4.
                                            pfet               1.00 
      426 xadder_32_base.xcla_4_2.xxor_p0.xpfet_5.
                                            pfet               1.00 
      427 xadder_32_base.xcla_4_2.xxor_p0.xnfet_3.
                                            nfet               1.00 
      428 xadder_32_base.xcla_4_2.xxor_p0.xnfet_4.
                                            nfet               1.00 
      429 xadder_32_base.xcla_4_2.xxor_p0.xnfet_5.
                                            nfet               1.00 
      430 xadder_32_base.xcla_4_2.xxor_p1.xpfet_1.
                                            pfet               1.00 
      431 xadder_32_base.xcla_4_2.xxor_p1.xpfet_2.
                                            pfet               1.00 
      432 xadder_32_base.xcla_4_2.xxor_p1.xnfet_1.
                                            nfet               1.00 
      433 xadder_32_base.xcla_4_2.xxor_p1.xnfet_2.
                                            nfet               1.00 
      434 xadder_32_base.xcla_4_2.xxor_p1.xpfet_3.
                                            pfet               1.00 
      435 xadder_32_base.xcla_4_2.xxor_p1.xpfet_4.
                                            pfet               1.00 
      436 xadder_32_base.xcla_4_2.xxor_p1.xpfet_5.
                                            pfet               1.00 
      437 xadder_32_base.xcla_4_2.xxor_p1.xnfet_3.
                                            nfet               1.00 
      438 xadder_32_base.xcla_4_2.xxor_p1.xnfet_4.
                                            nfet               1.00 
      439 xadder_32_base.xcla_4_2.xxor_p1.xnfet_5.
                                            nfet               1.00 
      440 xadder_32_base.xcla_4_2.xxor_p2.xpfet_1.
                                            pfet               1.00 
      441 xadder_32_base.xcla_4_2.xxor_p2.xpfet_2.
                                            pfet               1.00 
      442 xadder_32_base.xcla_4_2.xxor_p2.xnfet_1.
                                            nfet               1.00 
      443 xadder_32_base.xcla_4_2.xxor_p2.xnfet_2.
                                            nfet               1.00 
      444 xadder_32_base.xcla_4_2.xxor_p2.xpfet_3.
                                            pfet               1.00 
      445 xadder_32_base.xcla_4_2.xxor_p2.xpfet_4.
                                            pfet               1.00 
      446 xadder_32_base.xcla_4_2.xxor_p2.xpfet_5.
                                            pfet               1.00 
      447 xadder_32_base.xcla_4_2.xxor_p2.xnfet_3.
                                            nfet               1.00 
      448 xadder_32_base.xcla_4_2.xxor_p2.xnfet_4.
                                            nfet               1.00 
      449 xadder_32_base.xcla_4_2.xxor_p2.xnfet_5.
                                            nfet               1.00 
      450 xadder_32_base.xcla_4_2.xxor_p3.xpfet_1.
                                            pfet               1.00 
      451 xadder_32_base.xcla_4_2.xxor_p3.xpfet_2.
                                            pfet               1.00 
      452 xadder_32_base.xcla_4_2.xxor_p3.xnfet_1.
                                            nfet               1.00 
      453 xadder_32_base.xcla_4_2.xxor_p3.xnfet_2.
                                            nfet               1.00 
      454 xadder_32_base.xcla_4_2.xxor_p3.xpfet_3.
                                            pfet               1.00 
      455 xadder_32_base.xcla_4_2.xxor_p3.xpfet_4.
                                            pfet               1.00 
      456 xadder_32_base.xcla_4_2.xxor_p3.xpfet_5.
                                            pfet               1.00 
      457 xadder_32_base.xcla_4_2.xxor_p3.xnfet_3.
                                            nfet               1.00 
      458 xadder_32_base.xcla_4_2.xxor_p3.xnfet_4.
                                            nfet               1.00 
      459 xadder_32_base.xcla_4_2.xxor_p3.xnfet_5.
                                            nfet               1.00 
      460 xadder_32_base.xcla_4_2.xand2_g0.xpfet_1.
                                            pfet               1.00 
      461 xadder_32_base.xcla_4_2.xand2_g0.xpfet_2.
                                            pfet               1.00 
      462 xadder_32_base.xcla_4_2.xand2_g0.xnfet_1.
                                            nfet               1.00 
      463 xadder_32_base.xcla_4_2.xand2_g0.xnfet_2.
                                            nfet               1.00 
      464 xadder_32_base.xcla_4_2.xand2_g0.xinv_size_1.
                                            inv_size_1         1.00 
      465 xadder_32_base.xcla_4_2.xand2_g1.xpfet_1.
                                            pfet               1.00 
      466 xadder_32_base.xcla_4_2.xand2_g1.xpfet_2.
                                            pfet               1.00 
      467 xadder_32_base.xcla_4_2.xand2_g1.xnfet_1.
                                            nfet               1.00 
      468 xadder_32_base.xcla_4_2.xand2_g1.xnfet_2.
                                            nfet               1.00 
      469 xadder_32_base.xcla_4_2.xand2_g1.xinv_size_1.
                                            inv_size_1         1.00 
      470 xadder_32_base.xcla_4_2.xand2_g2.xpfet_1.
                                            pfet               1.00 
      471 xadder_32_base.xcla_4_2.xand2_g2.xpfet_2.
                                            pfet               1.00 
      472 xadder_32_base.xcla_4_2.xand2_g2.xnfet_1.
                                            nfet               1.00 
      473 xadder_32_base.xcla_4_2.xand2_g2.xnfet_2.
                                            nfet               1.00 
      474 xadder_32_base.xcla_4_2.xand2_g2.xinv_size_1.
                                            inv_size_1         1.00 
      475 xadder_32_base.xcla_4_2.xand2_g3.xpfet_1.
                                            pfet               1.00 
      476 xadder_32_base.xcla_4_2.xand2_g3.xpfet_2.
                                            pfet               1.00 
      477 xadder_32_base.xcla_4_2.xand2_g3.xnfet_1.
                                            nfet               1.00 
      478 xadder_32_base.xcla_4_2.xand2_g3.xnfet_2.
                                            nfet               1.00 
      479 xadder_32_base.xcla_4_2.xand2_g3.xinv_size_1.
                                            inv_size_1         1.00 
      480 xadder_32_base.xcla_4_2.xand2_c1.xpfet_1.
                                            pfet               1.00 
      481 xadder_32_base.xcla_4_2.xand2_c1.xpfet_2.
                                            pfet               1.00 
      482 xadder_32_base.xcla_4_2.xand2_c1.xnfet_1.
                                            nfet               1.00 
      483 xadder_32_base.xcla_4_2.xand2_c1.xnfet_2.
                                            nfet               1.00 
      484 xadder_32_base.xcla_4_2.xand2_c1.xinv_size_1.
                                            inv_size_1         1.00 
      485 xadder_32_base.xcla_4_2.xor2_c1.xpfet_1.
                                            pfet               1.00 
      486 xadder_32_base.xcla_4_2.xor2_c1.xpfet_2.
                                            pfet               1.00 
      487 xadder_32_base.xcla_4_2.xor2_c1.xnfet_1.
                                            nfet               1.00 
      488 xadder_32_base.xcla_4_2.xor2_c1.xnfet_2.
                                            nfet               1.00 
      489 xadder_32_base.xcla_4_2.xor2_c1.xinv_size_1.
                                            inv_size_1         1.00 
      490 xadder_32_base.xcla_4_2.xand3_c2.xpfet_1.
                                            pfet               1.00 
      491 xadder_32_base.xcla_4_2.xand3_c2.xpfet_2.
                                            pfet               1.00 
      492 xadder_32_base.xcla_4_2.xand3_c2.xpfet_3.
                                            pfet               1.00 
      493 xadder_32_base.xcla_4_2.xand3_c2.xnfet_1.
                                            nfet               1.00 
      494 xadder_32_base.xcla_4_2.xand3_c2.xnfet_2.
                                            nfet               1.00 
      495 xadder_32_base.xcla_4_2.xand3_c2.xnfet_3.
                                            nfet               1.00 
      496 xadder_32_base.xcla_4_2.xand3_c2.xinv_size_1.
                                            inv_size_1         1.00 
      497 xadder_32_base.xcla_4_2.xand2_c2.xpfet_1.
                                            pfet               1.00 
      498 xadder_32_base.xcla_4_2.xand2_c2.xpfet_2.
                                            pfet               1.00 
      499 xadder_32_base.xcla_4_2.xand2_c2.xnfet_1.
                                            nfet               1.00 
      500 xadder_32_base.xcla_4_2.xand2_c2.xnfet_2.
                                            nfet               1.00 
      501 xadder_32_base.xcla_4_2.xand2_c2.xinv_size_1.
                                            inv_size_1         1.00 
      502 xadder_32_base.xcla_4_2.xor3_c2.xpfet_1.
                                            pfet               1.00 
      503 xadder_32_base.xcla_4_2.xor3_c2.xpfet_2.
                                            pfet               1.00 
      504 xadder_32_base.xcla_4_2.xor3_c2.xpfet_3.
                                            pfet               1.00 
      505 xadder_32_base.xcla_4_2.xor3_c2.xnfet_1.
                                            nfet               1.00 
      506 xadder_32_base.xcla_4_2.xor3_c2.xnfet_2.
                                            nfet               1.00 
      507 xadder_32_base.xcla_4_2.xor3_c2.xnfet_3.
                                            nfet               1.00 
      508 xadder_32_base.xcla_4_2.xor3_c2.xinv_size_1.
                                            inv_size_1         1.00 
      509 xadder_32_base.xcla_4_2.xand4_c3.xpfet_1.
                                            pfet               1.00 
      510 xadder_32_base.xcla_4_2.xand4_c3.xpfet_2.
                                            pfet               1.00 
      511 xadder_32_base.xcla_4_2.xand4_c3.xpfet_3.
                                            pfet               1.00 
      512 xadder_32_base.xcla_4_2.xand4_c3.xpfet_4.
                                            pfet               1.00 
      513 xadder_32_base.xcla_4_2.xand4_c3.xnfet_1.
                                            nfet               1.00 
      514 xadder_32_base.xcla_4_2.xand4_c3.xnfet_2.
                                            nfet               1.00 
      515 xadder_32_base.xcla_4_2.xand4_c3.xnfet_3.
                                            nfet               1.00 
      516 xadder_32_base.xcla_4_2.xand4_c3.xnfet_4.
                                            nfet               1.00 
      517 xadder_32_base.xcla_4_2.xand4_c3.xinv_size_1.
                                            inv_size_1         1.00 
      518 xadder_32_base.xcla_4_2.xand3_c3.xpfet_1.
                                            pfet               1.00 
      519 xadder_32_base.xcla_4_2.xand3_c3.xpfet_2.
                                            pfet               1.00 
      520 xadder_32_base.xcla_4_2.xand3_c3.xpfet_3.
                                            pfet               1.00 
      521 xadder_32_base.xcla_4_2.xand3_c3.xnfet_1.
                                            nfet               1.00 
      522 xadder_32_base.xcla_4_2.xand3_c3.xnfet_2.
                                            nfet               1.00 
      523 xadder_32_base.xcla_4_2.xand3_c3.xnfet_3.
                                            nfet               1.00 
      524 xadder_32_base.xcla_4_2.xand3_c3.xinv_size_1.
                                            inv_size_1         1.00 
      525 xadder_32_base.xcla_4_2.xand2_c3.xpfet_1.
                                            pfet               1.00 
      526 xadder_32_base.xcla_4_2.xand2_c3.xpfet_2.
                                            pfet               1.00 
      527 xadder_32_base.xcla_4_2.xand2_c3.xnfet_1.
                                            nfet               1.00 
      528 xadder_32_base.xcla_4_2.xand2_c3.xnfet_2.
                                            nfet               1.00 
      529 xadder_32_base.xcla_4_2.xand2_c3.xinv_size_1.
                                            inv_size_1         1.00 
      530 xadder_32_base.xcla_4_2.xor4_c3.xpfet_1.
                                            pfet               1.00 
      531 xadder_32_base.xcla_4_2.xor4_c3.xpfet_2.
                                            pfet               1.00 
      532 xadder_32_base.xcla_4_2.xor4_c3.xpfet_3.
                                            pfet               1.00 
      533 xadder_32_base.xcla_4_2.xor4_c3.xpfet_4.
                                            pfet               1.00 
      534 xadder_32_base.xcla_4_2.xor4_c3.xnfet_1.
                                            nfet               1.00 
      535 xadder_32_base.xcla_4_2.xor4_c3.xnfet_2.
                                            nfet               1.00 
      536 xadder_32_base.xcla_4_2.xor4_c3.xnfet_3.
                                            nfet               1.00 
      537 xadder_32_base.xcla_4_2.xor4_c3.xnfet_4.
                                            nfet               1.00 
      538 xadder_32_base.xcla_4_2.xor4_c3.xinv_size_1.
                                            inv_size_1         1.00 
      539 xadder_32_base.xcla_4_2.xand5_c4.xpfet_1.
                                            pfet               1.00 
      540 xadder_32_base.xcla_4_2.xand5_c4.xpfet_2.
                                            pfet               1.00 
      541 xadder_32_base.xcla_4_2.xand5_c4.xpfet_3.
                                            pfet               1.00 
      542 xadder_32_base.xcla_4_2.xand5_c4.xpfet_4.
                                            pfet               1.00 
      543 xadder_32_base.xcla_4_2.xand5_c4.xpfet_5.
                                            pfet               1.00 
      544 xadder_32_base.xcla_4_2.xand5_c4.xnfet_1.
                                            nfet               1.00 
      545 xadder_32_base.xcla_4_2.xand5_c4.xnfet_2.
                                            nfet               1.00 
      546 xadder_32_base.xcla_4_2.xand5_c4.xnfet_3.
                                            nfet               1.00 
      547 xadder_32_base.xcla_4_2.xand5_c4.xnfet_4.
                                            nfet               1.00 
      548 xadder_32_base.xcla_4_2.xand5_c4.xnfet_5.
                                            nfet               1.00 
      549 xadder_32_base.xcla_4_2.xand5_c4.xinv_size_1.
                                            inv_size_1         1.00 
      550 xadder_32_base.xcla_4_2.xand4_c4.xpfet_1.
                                            pfet               1.00 
      551 xadder_32_base.xcla_4_2.xand4_c4.xpfet_2.
                                            pfet               1.00 
      552 xadder_32_base.xcla_4_2.xand4_c4.xpfet_3.
                                            pfet               1.00 
      553 xadder_32_base.xcla_4_2.xand4_c4.xpfet_4.
                                            pfet               1.00 
      554 xadder_32_base.xcla_4_2.xand4_c4.xnfet_1.
                                            nfet               1.00 
      555 xadder_32_base.xcla_4_2.xand4_c4.xnfet_2.
                                            nfet               1.00 
      556 xadder_32_base.xcla_4_2.xand4_c4.xnfet_3.
                                            nfet               1.00 
      557 xadder_32_base.xcla_4_2.xand4_c4.xnfet_4.
                                            nfet               1.00 
      558 xadder_32_base.xcla_4_2.xand4_c4.xinv_size_1.
                                            inv_size_1         1.00 
      559 xadder_32_base.xcla_4_2.xand3_c4.xpfet_1.
                                            pfet               1.00 
      560 xadder_32_base.xcla_4_2.xand3_c4.xpfet_2.
                                            pfet               1.00 
      561 xadder_32_base.xcla_4_2.xand3_c4.xpfet_3.
                                            pfet               1.00 
      562 xadder_32_base.xcla_4_2.xand3_c4.xnfet_1.
                                            nfet               1.00 
      563 xadder_32_base.xcla_4_2.xand3_c4.xnfet_2.
                                            nfet               1.00 
      564 xadder_32_base.xcla_4_2.xand3_c4.xnfet_3.
                                            nfet               1.00 
      565 xadder_32_base.xcla_4_2.xand3_c4.xinv_size_1.
                                            inv_size_1         1.00 
      566 xadder_32_base.xcla_4_2.xand2_c4.xpfet_1.
                                            pfet               1.00 
      567 xadder_32_base.xcla_4_2.xand2_c4.xpfet_2.
                                            pfet               1.00 
      568 xadder_32_base.xcla_4_2.xand2_c4.xnfet_1.
                                            nfet               1.00 
      569 xadder_32_base.xcla_4_2.xand2_c4.xnfet_2.
                                            nfet               1.00 
      570 xadder_32_base.xcla_4_2.xand2_c4.xinv_size_1.
                                            inv_size_1         1.00 
      571 xadder_32_base.xcla_4_2.xor5_c4.xpfet_1.
                                            pfet               1.00 
      572 xadder_32_base.xcla_4_2.xor5_c4.xpfet_2.
                                            pfet               1.00 
      573 xadder_32_base.xcla_4_2.xor5_c4.xpfet_3.
                                            pfet               1.00 
      574 xadder_32_base.xcla_4_2.xor5_c4.xpfet_4.
                                            pfet               1.00 
      575 xadder_32_base.xcla_4_2.xor5_c4.xpfet_5.
                                            pfet               1.00 
      576 xadder_32_base.xcla_4_2.xor5_c4.xnfet_1.
                                            nfet               1.00 
      577 xadder_32_base.xcla_4_2.xor5_c4.xnfet_2.
                                            nfet               1.00 
      578 xadder_32_base.xcla_4_2.xor5_c4.xnfet_3.
                                            nfet               1.00 
      579 xadder_32_base.xcla_4_2.xor5_c4.xnfet_4.
                                            nfet               1.00 
      580 xadder_32_base.xcla_4_2.xor5_c4.xnfet_5.
                                            nfet               1.00 
      581 xadder_32_base.xcla_4_2.xor5_c4.xinv_size_1.
                                            inv_size_1         1.00 
      582 xadder_32_base.xcla_4_2.xxor_s0.xpfet_1.
                                            pfet               1.00 
      583 xadder_32_base.xcla_4_2.xxor_s0.xpfet_2.
                                            pfet               1.00 
      584 xadder_32_base.xcla_4_2.xxor_s0.xnfet_1.
                                            nfet               1.00 
      585 xadder_32_base.xcla_4_2.xxor_s0.xnfet_2.
                                            nfet               1.00 
      586 xadder_32_base.xcla_4_2.xxor_s0.xpfet_3.
                                            pfet               1.00 
      587 xadder_32_base.xcla_4_2.xxor_s0.xpfet_4.
                                            pfet               1.00 
      588 xadder_32_base.xcla_4_2.xxor_s0.xpfet_5.
                                            pfet               1.00 
      589 xadder_32_base.xcla_4_2.xxor_s0.xnfet_3.
                                            nfet               1.00 
      590 xadder_32_base.xcla_4_2.xxor_s0.xnfet_4.
                                            nfet               1.00 
      591 xadder_32_base.xcla_4_2.xxor_s0.xnfet_5.
                                            nfet               1.00 
      592 xadder_32_base.xcla_4_2.xxor_s1.xpfet_1.
                                            pfet               1.00 
      593 xadder_32_base.xcla_4_2.xxor_s1.xpfet_2.
                                            pfet               1.00 
      594 xadder_32_base.xcla_4_2.xxor_s1.xnfet_1.
                                            nfet               1.00 
      595 xadder_32_base.xcla_4_2.xxor_s1.xnfet_2.
                                            nfet               1.00 
      596 xadder_32_base.xcla_4_2.xxor_s1.xpfet_3.
                                            pfet               1.00 
      597 xadder_32_base.xcla_4_2.xxor_s1.xpfet_4.
                                            pfet               1.00 
      598 xadder_32_base.xcla_4_2.xxor_s1.xpfet_5.
                                            pfet               1.00 
      599 xadder_32_base.xcla_4_2.xxor_s1.xnfet_3.
                                            nfet               1.00 
      600 xadder_32_base.xcla_4_2.xxor_s1.xnfet_4.
                                            nfet               1.00 
      601 xadder_32_base.xcla_4_2.xxor_s1.xnfet_5.
                                            nfet               1.00 
      602 xadder_32_base.xcla_4_2.xxor_s2.xpfet_1.
                                            pfet               1.00 
      603 xadder_32_base.xcla_4_2.xxor_s2.xpfet_2.
                                            pfet               1.00 
      604 xadder_32_base.xcla_4_2.xxor_s2.xnfet_1.
                                            nfet               1.00 
      605 xadder_32_base.xcla_4_2.xxor_s2.xnfet_2.
                                            nfet               1.00 
      606 xadder_32_base.xcla_4_2.xxor_s2.xpfet_3.
                                            pfet               1.00 
      607 xadder_32_base.xcla_4_2.xxor_s2.xpfet_4.
                                            pfet               1.00 
      608 xadder_32_base.xcla_4_2.xxor_s2.xpfet_5.
                                            pfet               1.00 
      609 xadder_32_base.xcla_4_2.xxor_s2.xnfet_3.
                                            nfet               1.00 
      610 xadder_32_base.xcla_4_2.xxor_s2.xnfet_4.
                                            nfet               1.00 
      611 xadder_32_base.xcla_4_2.xxor_s2.xnfet_5.
                                            nfet               1.00 
      612 xadder_32_base.xcla_4_2.xxor_s3.xpfet_1.
                                            pfet               1.00 
      613 xadder_32_base.xcla_4_2.xxor_s3.xpfet_2.
                                            pfet               1.00 
      614 xadder_32_base.xcla_4_2.xxor_s3.xnfet_1.
                                            nfet               1.00 
      615 xadder_32_base.xcla_4_2.xxor_s3.xnfet_2.
                                            nfet               1.00 
      616 xadder_32_base.xcla_4_2.xxor_s3.xpfet_3.
                                            pfet               1.00 
      617 xadder_32_base.xcla_4_2.xxor_s3.xpfet_4.
                                            pfet               1.00 
      618 xadder_32_base.xcla_4_2.xxor_s3.xpfet_5.
                                            pfet               1.00 
      619 xadder_32_base.xcla_4_2.xxor_s3.xnfet_3.
                                            nfet               1.00 
      620 xadder_32_base.xcla_4_2.xxor_s3.xnfet_4.
                                            nfet               1.00 
      621 xadder_32_base.xcla_4_2.xxor_s3.xnfet_5.
                                            nfet               1.00 
      622 xadder_32_base.xcla_4_3.xxor_p0.xpfet_1.
                                            pfet               1.00 
      623 xadder_32_base.xcla_4_3.xxor_p0.xpfet_2.
                                            pfet               1.00 
      624 xadder_32_base.xcla_4_3.xxor_p0.xnfet_1.
                                            nfet               1.00 
      625 xadder_32_base.xcla_4_3.xxor_p0.xnfet_2.
                                            nfet               1.00 
      626 xadder_32_base.xcla_4_3.xxor_p0.xpfet_3.
                                            pfet               1.00 
      627 xadder_32_base.xcla_4_3.xxor_p0.xpfet_4.
                                            pfet               1.00 
      628 xadder_32_base.xcla_4_3.xxor_p0.xpfet_5.
                                            pfet               1.00 
      629 xadder_32_base.xcla_4_3.xxor_p0.xnfet_3.
                                            nfet               1.00 
      630 xadder_32_base.xcla_4_3.xxor_p0.xnfet_4.
                                            nfet               1.00 
      631 xadder_32_base.xcla_4_3.xxor_p0.xnfet_5.
                                            nfet               1.00 
      632 xadder_32_base.xcla_4_3.xxor_p1.xpfet_1.
                                            pfet               1.00 
      633 xadder_32_base.xcla_4_3.xxor_p1.xpfet_2.
                                            pfet               1.00 
      634 xadder_32_base.xcla_4_3.xxor_p1.xnfet_1.
                                            nfet               1.00 
      635 xadder_32_base.xcla_4_3.xxor_p1.xnfet_2.
                                            nfet               1.00 
      636 xadder_32_base.xcla_4_3.xxor_p1.xpfet_3.
                                            pfet               1.00 
      637 xadder_32_base.xcla_4_3.xxor_p1.xpfet_4.
                                            pfet               1.00 
      638 xadder_32_base.xcla_4_3.xxor_p1.xpfet_5.
                                            pfet               1.00 
      639 xadder_32_base.xcla_4_3.xxor_p1.xnfet_3.
                                            nfet               1.00 
      640 xadder_32_base.xcla_4_3.xxor_p1.xnfet_4.
                                            nfet               1.00 
      641 xadder_32_base.xcla_4_3.xxor_p1.xnfet_5.
                                            nfet               1.00 
      642 xadder_32_base.xcla_4_3.xxor_p2.xpfet_1.
                                            pfet               1.00 
      643 xadder_32_base.xcla_4_3.xxor_p2.xpfet_2.
                                            pfet               1.00 
      644 xadder_32_base.xcla_4_3.xxor_p2.xnfet_1.
                                            nfet               1.00 
      645 xadder_32_base.xcla_4_3.xxor_p2.xnfet_2.
                                            nfet               1.00 
      646 xadder_32_base.xcla_4_3.xxor_p2.xpfet_3.
                                            pfet               1.00 
      647 xadder_32_base.xcla_4_3.xxor_p2.xpfet_4.
                                            pfet               1.00 
      648 xadder_32_base.xcla_4_3.xxor_p2.xpfet_5.
                                            pfet               1.00 
      649 xadder_32_base.xcla_4_3.xxor_p2.xnfet_3.
                                            nfet               1.00 
      650 xadder_32_base.xcla_4_3.xxor_p2.xnfet_4.
                                            nfet               1.00 
      651 xadder_32_base.xcla_4_3.xxor_p2.xnfet_5.
                                            nfet               1.00 
      652 xadder_32_base.xcla_4_3.xxor_p3.xpfet_1.
                                            pfet               1.00 
      653 xadder_32_base.xcla_4_3.xxor_p3.xpfet_2.
                                            pfet               1.00 
      654 xadder_32_base.xcla_4_3.xxor_p3.xnfet_1.
                                            nfet               1.00 
      655 xadder_32_base.xcla_4_3.xxor_p3.xnfet_2.
                                            nfet               1.00 
      656 xadder_32_base.xcla_4_3.xxor_p3.xpfet_3.
                                            pfet               1.00 
      657 xadder_32_base.xcla_4_3.xxor_p3.xpfet_4.
                                            pfet               1.00 
      658 xadder_32_base.xcla_4_3.xxor_p3.xpfet_5.
                                            pfet               1.00 
      659 xadder_32_base.xcla_4_3.xxor_p3.xnfet_3.
                                            nfet               1.00 
      660 xadder_32_base.xcla_4_3.xxor_p3.xnfet_4.
                                            nfet               1.00 
      661 xadder_32_base.xcla_4_3.xxor_p3.xnfet_5.
                                            nfet               1.00 
      662 xadder_32_base.xcla_4_3.xand2_g0.xpfet_1.
                                            pfet               1.00 
      663 xadder_32_base.xcla_4_3.xand2_g0.xpfet_2.
                                            pfet               1.00 
      664 xadder_32_base.xcla_4_3.xand2_g0.xnfet_1.
                                            nfet               1.00 
      665 xadder_32_base.xcla_4_3.xand2_g0.xnfet_2.
                                            nfet               1.00 
      666 xadder_32_base.xcla_4_3.xand2_g0.xinv_size_1.
[...]
 +   8:c2_t1   =  31.5825n    8:c2_t2   =  31.5825n    8:c3      =  31.6219n
 +   8:c3_t1   =  31.5825n    8:c3_t2   =  31.5825n    8:c3_t3   =  31.5825n
 +   8:c4_t1   =  31.5825n    8:c4_t2   =  31.5825n    8:c4_t3   =  31.5825n
 +   8:c4_t4   =  31.5825n    8:g0      =  31.7003n    8:g1      =  31.6611n
 +   8:g2      =  31.6218n    8:g3      =  31.5825n    8:p0      =  31.7789n
 +   8:p1      =  31.8575n    8:p2      =  31.8575n    8:p3      =  31.7789n
 +   9:c1      =  31.6218n    9:c1_t    =  31.5825n    9:c2      =  31.6219n
 +   9:c2_t1   =  31.5825n    9:c2_t2   =  31.5825n    9:c3      =  31.6219n
 +   9:c3_t1   =  31.5825n    9:c3_t2   =  31.5825n    9:c3_t3   =  31.5825n
 +   9:c4_t1   =  31.5825n    9:c4_t2   =  31.5825n    9:c4_t3   =  31.5825n
 +   9:c4_t4   =  31.5825n    9:g0      =  31.7003n    9:g1      =  31.6611n
 +   9:g2      =  31.6218n    9:g3      =  31.5825n    9:p0      =  31.7789n
 +   9:p1      =  31.8575n    9:p2      =  31.8575n    9:p3      =  31.7789n
 +  10:node_1  = 699.9999m   10:node_2  = 700.0000m   10:node_3  =  15.4109n
 +  10:s       = 699.9998m   11:node_1  = 699.9999m   11:node_2  = 700.0000m
 +  11:node_3  =  16.3900n   11:s       = 699.9998m   12:node_1  = 699.9999m
 +  12:node_2  = 700.0000m   12:node_3  =  16.3898n   12:s       = 699.9998m
 +  13:node_1  = 699.9999m   13:node_2  = 700.0000m   13:node_3  =  16.8213n
 +  13:s       = 699.9998m   14:node_1  =  51.1851m   14:s       = 700.0000m
 +  15:node_1  =  51.1851m   15:s       = 700.0000m   16:node_1  =  51.1851m
 +  16:s       = 700.0000m   17:node_1  =  51.1851m   17:s       = 700.0000m
 +  18:node_1  =  51.1852m   18:s       = 700.0000m   19:node_1  = 699.9999m
 +  19:s       = 699.9998m   20:node_1  =  11.8743m   20:node_2  =  62.5210m
 +  20:s       = 700.0000m   21:node_1  =  51.1851m   21:s       = 700.0000m
 +  22:node_1  = 699.9999m   22:node_2  = 699.9998m   22:s       = 699.9997m
 +  23:node_1  =   8.0279m   23:node_2  =  19.8873m   23:node_3  =  70.1629m
 +  23:s       = 700.0000m   24:node_1  =  11.8743m   24:node_2  =  62.5210m
 +  24:s       = 700.0000m   25:node_1  =  51.1851m   25:s       = 700.0000m
 +  26:node_1  = 699.9999m   26:node_2  = 699.9998m   26:node_3  = 699.9997m
 +  26:s       = 699.9995m   27:node_1  =   6.2309m   27:node_2  =  14.2538m
 +  27:node_3  =  26.1012m   27:node_4  =  76.0843m   27:s       = 700.0000m
 +  28:node_1  =   8.0279m   28:node_2  =  19.8873m   28:node_3  =  70.1629m
 +  28:s       = 700.0000m   29:node_1  =  11.8743m   29:node_2  =  62.5210m
 +  29:s       = 700.0000m   30:node_1  =  51.1851m   30:s       = 700.0000m
 +  31:node_1  = 699.9999m   31:node_2  = 699.9997m   31:node_3  = 699.9996m
 +  31:node_4  = 699.9995m   31:s       = 699.9994m   32:node_1  = 699.9999m
 +  32:node_2  = 700.0000m   32:node_3  =  16.2346n   32:s       = 699.9998m
 +  33:node_1  = 699.9999m   33:node_2  = 700.0000m   33:node_3  =  15.7641n
 +  33:s       = 699.9998m   34:node_1  = 699.9999m   34:node_2  = 700.0000m
 +  34:node_3  =  15.2940n   34:s       = 699.9998m   35:node_1  = 699.9999m
 +  35:node_2  = 700.0000m   35:node_3  =  16.2347n   35:s       = 699.9998m
 +  36:node_1  = 699.9999m   36:node_2  = 700.0000m   36:node_3  =  16.3515n
 +  36:s       = 699.9998m   37:node_1  = 699.9999m   37:node_2  = 700.0000m
 +  37:node_3  =  15.9197n   37:s       = 699.9998m   38:node_1  = 699.9999m
 +  38:node_2  = 700.0000m   38:node_3  =  16.3897n   38:s       = 699.9998m
 +  39:node_1  = 699.9999m   39:node_2  = 700.0000m   39:node_3  =  16.3510n
 +  39:s       = 699.9998m   40:node_1  =  51.1851m   40:s       = 700.0000m
 +  41:node_1  =  51.1851m   41:s       = 700.0000m   42:node_1  =  51.1851m
 +  42:s       = 700.0000m   43:node_1  =  51.1851m   43:s       = 700.0000m
 +  44:node_1  =  51.1851m   44:s       = 700.0000m   45:node_1  = 699.9999m
 +  45:s       = 699.9998m   46:node_1  =  11.8743m   46:node_2  =  62.5210m
 +  46:s       = 700.0000m   47:node_1  =  51.1852m   47:s       = 700.0000m
 +  48:node_1  = 699.9999m   48:node_2  = 699.9998m   48:s       = 699.9997m
 +  49:node_1  =   8.0279m   49:node_2  =  19.8873m   49:node_3  =  70.1628m
 +  49:s       = 700.0000m   50:node_1  =  11.8743m   50:node_2  =  62.5210m
 +  50:s       = 700.0000m   51:node_1  =  51.1851m   51:s       = 700.0000m
 +  52:node_1  = 699.9999m   52:node_2  = 699.9998m   52:node_3  = 699.9997m
 +  52:s       = 699.9995m   53:node_1  =   6.2309m   53:node_2  =  14.2538m
 +  53:node_3  =  26.1012m   53:node_4  =  76.0843m   53:s       = 700.0000m
 +  54:node_1  =   8.0279m   54:node_2  =  19.8873m   54:node_3  =  70.1629m
 +  54:s       = 700.0000m   55:node_1  =  11.8743m   55:node_2  =  62.5210m
 +  55:s       = 700.0000m   56:node_1  =  51.1851m   56:s       = 700.0000m
 +  57:node_1  = 699.9999m   57:node_2  = 699.9997m   57:node_3  = 699.9996m
 +  57:node_4  = 699.9995m   57:s       = 699.9994m   58:node_1  = 699.9999m
 +  58:node_2  = 700.0000m   58:node_3  =  16.7046n   58:s       = 699.9998m
 +  59:node_1  = 699.9999m   59:node_2  = 700.0000m   59:node_3  =  15.7641n
 +  59:s       = 699.9998m   60:node_1  = 699.9999m   60:node_2  = 700.0000m
 +  60:node_3  =  17.1750n   60:s       = 699.9998m   61:node_1  = 699.9999m
 +  61:node_2  = 700.0000m   61:node_3  =  15.2941n   61:s       = 699.9998m
 +  62:node_1  = 699.9999m   62:node_2  = 700.0000m   62:node_3  =  16.3515n
 +  62:s       = 699.9998m   63:node_1  = 699.9999m   63:node_2  = 700.0000m
 +  63:node_3  =  15.9197n   63:s       = 699.9998m   64:node_1  = 699.9999m
 +  64:node_2  = 700.0000m   64:node_3  =  16.3897n   64:s       = 699.9998m
 +  65:node_1  = 699.9999m   65:node_2  = 700.0000m   65:node_3  =  16.3510n
 +  65:s       = 699.9998m   66:node_1  =  51.1851m   66:s       = 700.0000m
 +  67:node_1  =  51.1851m   67:s       = 700.0000m   68:node_1  =  51.1851m
 +  68:s       = 700.0000m   69:node_1  =  51.1851m   69:s       = 700.0000m
 +  70:node_1  =  51.1852m   70:s       = 700.0000m   71:node_1  = 699.9999m
 +  71:s       = 699.9998m   72:node_1  =  11.8743m   72:node_2  =  62.5210m
 +  72:s       = 700.0000m   73:node_1  =  51.1852m   73:s       = 700.0000m
 +  74:node_1  = 699.9999m   74:node_2  = 699.9998m   74:s       = 699.9997m
 +  75:node_1  =   8.0279m   75:node_2  =  19.8873m   75:node_3  =  70.1628m
 +  75:s       = 700.0000m   76:node_1  =  11.8743m   76:node_2  =  62.5210m
 +  76:s       = 700.0000m   77:node_1  =  51.1851m   77:s       = 700.0000m
 +  78:node_1  = 699.9999m   78:node_2  = 699.9998m   78:node_3  = 699.9997m
 +  78:s       = 699.9995m   79:node_1  =   6.2309m   79:node_2  =  14.2538m
 +  79:node_3  =  26.1011m   79:node_4  =  76.0843m   79:s       = 700.0000m
 +  80:node_1  =   8.0279m   80:node_2  =  19.8873m   80:node_3  =  70.1629m
 +  80:s       = 700.0000m   81:node_1  =  11.8743m   81:node_2  =  62.5210m
 +  81:s       = 700.0000m   82:node_1  =  51.1851m   82:s       = 700.0000m
 +  83:node_1  = 699.9999m   83:node_2  = 699.9997m   83:node_3  = 699.9996m
 +  83:node_4  = 699.9995m   83:s       = 699.9994m   84:node_1  = 699.9999m
 +  84:node_2  = 700.0000m   84:node_3  =  17.1749n   84:s       = 699.9998m
 +  85:node_1  = 699.9999m   85:node_2  = 700.0000m   85:node_3  =  15.7641n
 +  85:s       = 699.9998m   86:node_1  = 699.9999m   86:node_2  = 700.0000m
 +  86:node_3  =  16.2345n   86:s       = 699.9998m   87:node_1  = 699.9999m
 +  87:node_2  = 700.0000m   87:node_3  =  15.2941n   87:s       = 699.9998m
 +  88:node_1  = 699.9999m   88:node_2  = 700.0000m   88:node_3  =  16.3515n
 +  88:s       = 699.9998m   89:node_1  = 699.9999m   89:node_2  = 700.0000m
 +  89:node_3  =  15.9197n   89:s       = 699.9998m   90:node_1  = 699.9999m
 +  90:node_2  = 700.0000m   90:node_3  =  16.3897n   90:s       = 699.9998m
 +  91:node_1  = 699.9999m   91:node_2  = 700.0000m   91:node_3  =  16.3510n
 +  91:s       = 699.9998m   92:node_1  =  51.1851m   92:s       = 700.0000m
 +  93:node_1  =  51.1851m   93:s       = 700.0000m   94:node_1  =  51.1851m
 +  94:s       = 700.0000m   95:node_1  =  51.1851m   95:s       = 700.0000m
 +  96:node_1  =  51.1851m   96:s       = 700.0000m   97:node_1  = 699.9999m
 +  97:s       = 699.9998m   98:node_1  =  11.8743m   98:node_2  =  62.5210m
 +  98:s       = 700.0000m   99:node_1  =  51.1852m   99:s       = 700.0000m
 + 100:node_1  = 699.9999m  100:node_2  = 699.9998m  100:s       = 699.9997m
 + 101:node_1  =   8.0279m  101:node_2  =  19.8873m  101:node_3  =  70.1629m
 + 101:s       = 700.0000m  102:node_1  =  11.8743m  102:node_2  =  62.5210m
 + 102:s       = 700.0000m  103:node_1  =  51.1851m  103:s       = 700.0000m
 + 104:node_1  = 699.9999m  104:node_2  = 699.9998m  104:node_3  = 699.9997m
 + 104:s       = 699.9995m  105:node_1  =   6.2309m  105:node_2  =  14.2538m
 + 105:node_3  =  26.1012m  105:node_4  =  76.0843m  105:s       = 700.0000m
 + 106:node_1  =   8.0279m  106:node_2  =  19.8873m  106:node_3  =  70.1629m
 + 106:s       = 700.0000m  107:node_1  =  11.8743m  107:node_2  =  62.5210m
 + 107:s       = 700.0000m  108:node_1  =  51.1851m  108:s       = 700.0000m
 + 109:node_1  = 699.9999m  109:node_2  = 699.9997m  109:node_3  = 699.9996m
 + 109:node_4  = 699.9995m  109:s       = 699.9994m  110:node_1  = 699.9999m
 + 110:node_2  = 700.0000m  110:node_3  =  15.7641n  110:s       = 699.9998m
 + 111:node_1  = 699.9999m  111:node_2  = 700.0000m  111:node_3  =  15.7641n
 + 111:s       = 699.9998m  112:node_1  = 699.9999m  112:node_2  = 700.0000m
 + 112:node_3  =  16.2345n  112:s       = 699.9998m  113:node_1  = 699.9999m
 + 113:node_2  = 700.0000m  113:node_3  =  15.2941n  113:s       = 699.9998m
 + 114:node_1  = 699.9999m  114:node_2  = 700.0000m  114:node_3  =  16.3515n
 + 114:s       = 699.9998m  115:node_1  = 699.9999m  115:node_2  = 700.0000m
 + 115:node_3  =  15.9197n  115:s       = 699.9998m  116:node_1  = 699.9999m
 + 116:node_2  = 700.0000m  116:node_3  =  16.3897n  116:s       = 699.9998m
 + 117:node_1  = 699.9999m  117:node_2  = 700.0000m  117:node_3  =  16.3510n
 + 117:s       = 699.9998m  118:node_1  =  51.1851m  118:s       = 700.0000m
 + 119:node_1  =  51.1851m  119:s       = 700.0000m  120:node_1  =  51.1851m
 + 120:s       = 700.0000m  121:node_1  =  51.1851m  121:s       = 700.0000m
 + 122:node_1  =  51.1851m  122:s       = 700.0000m  123:node_1  = 699.9999m
 + 123:s       = 699.9998m  124:node_1  =  11.8743m  124:node_2  =  62.5210m
 + 124:s       = 700.0000m  125:node_1  =  51.1852m  125:s       = 700.0000m
 + 126:node_1  = 699.9999m  126:node_2  = 699.9998m  126:s       = 699.9997m
 + 127:node_1  =   8.0279m  127:node_2  =  19.8873m  127:node_3  =  70.1629m
 + 127:s       = 700.0000m  128:node_1  =  11.8743m  128:node_2  =  62.5210m
 + 128:s       = 700.0000m  129:node_1  =  51.1851m  129:s       = 700.0000m
 + 130:node_1  = 699.9999m  130:node_2  = 699.9998m  130:node_3  = 699.9997m
 + 130:s       = 699.9995m  131:node_1  =   6.2309m  131:node_2  =  14.2538m
 + 131:node_3  =  26.1011m  131:node_4  =  76.0843m  131:s       = 700.0000m
 + 132:node_1  =   8.0279m  132:node_2  =  19.8873m  132:node_3  =  70.1629m
 + 132:s       = 700.0000m  133:node_1  =  11.8743m  133:node_2  =  62.5210m
 + 133:s       = 700.0000m  134:node_1  =  51.1851m  134:s       = 700.0000m
 + 135:node_1  = 699.9999m  135:node_2  = 699.9997m  135:node_3  = 699.9996m
 + 135:node_4  = 699.9995m  135:s       = 699.9994m  136:node_1  = 699.9999m
 + 136:node_2  = 700.0000m  136:node_3  =  15.7641n  136:s       = 699.9998m
 + 137:node_1  = 699.9999m  137:node_2  = 700.0000m  137:node_3  =  15.7641n
 + 137:s       = 699.9998m  138:node_1  = 699.9999m  138:node_2  = 700.0000m
 + 138:node_3  =  16.2345n  138:s       = 699.9998m  139:node_1  = 699.9999m
 + 139:node_2  = 700.0000m  139:node_3  =  15.2941n  139:s       = 699.9998m
 + 140:node_1  = 699.9999m  140:node_2  = 700.0000m  140:node_3  =  16.3515n
 + 140:s       = 699.9998m  141:node_1  = 699.9999m  141:node_2  = 700.0000m
 + 141:node_3  =  15.9197n  141:s       = 699.9998m  142:node_1  = 699.9999m
 + 142:node_2  = 700.0000m  142:node_3  =  16.3897n  142:s       = 699.9998m
 + 143:node_1  = 699.9999m  143:node_2  = 700.0000m  143:node_3  =  16.3510n
 + 143:s       = 699.9998m  144:node_1  =  51.1851m  144:s       = 700.0000m
 + 145:node_1  =  51.1851m  145:s       = 700.0000m  146:node_1  =  51.1851m
 + 146:s       = 700.0000m  147:node_1  =  51.1851m  147:s       = 700.0000m
 + 148:node_1  =  51.1851m  148:s       = 700.0000m  149:node_1  = 699.9999m
 + 149:s       = 699.9998m  150:node_1  =  11.8743m  150:node_2  =  62.5210m
 + 150:s       = 700.0000m  151:node_1  =  51.1852m  151:s       = 700.0000m
 + 152:node_1  = 699.9999m  152:node_2  = 699.9998m  152:s       = 699.9997m
 + 153:node_1  =   8.0279m  153:node_2  =  19.8873m  153:node_3  =  70.1629m
 + 153:s       = 700.0000m  154:node_1  =  11.8743m  154:node_2  =  62.5210m
 + 154:s       = 700.0000m  155:node_1  =  51.1851m  155:s       = 700.0000m
 + 156:node_1  = 699.9999m  156:node_2  = 699.9998m  156:node_3  = 699.9997m
 + 156:s       = 699.9995m  157:node_1  =   6.2309m  157:node_2  =  14.2538m
 + 157:node_3  =  26.1011m  157:node_4  =  76.0843m  157:s       = 700.0000m
 + 158:node_1  =   8.0279m  158:node_2  =  19.8873m  158:node_3  =  70.1629m
 + 158:s       = 700.0000m  159:node_1  =  11.8743m  159:node_2  =  62.5210m
 + 159:s       = 700.0000m  160:node_1  =  51.1851m  160:s       = 700.0000m
 + 161:node_1  = 699.9999m  161:node_2  = 699.9997m  161:node_3  = 699.9996m
 + 161:node_4  = 699.9995m  161:s       = 699.9994m  162:node_1  = 699.9999m
 + 162:node_2  = 700.0000m  162:node_3  =  15.7641n  162:s       = 699.9998m
 + 163:node_1  = 699.9999m  163:node_2  = 700.0000m  163:node_3  =  15.7641n
 + 163:s       = 699.9998m  164:node_1  = 699.9999m  164:node_2  = 700.0000m
 + 164:node_3  =  16.2345n  164:s       = 699.9998m  165:node_1  = 699.9999m
 + 165:node_2  = 700.0000m  165:node_3  =  15.2941n  165:s       = 699.9998m
 + 166:node_1  = 699.9999m  166:node_2  = 700.0000m  166:node_3  =  16.3515n
 + 166:s       = 699.9998m  167:node_1  = 699.9999m  167:node_2  = 700.0000m
 + 167:node_3  =  15.9197n  167:s       = 699.9998m  168:node_1  = 699.9999m
 + 168:node_2  = 700.0000m  168:node_3  =  16.3897n  168:s       = 699.9998m
 + 169:node_1  = 699.9999m  169:node_2  = 700.0000m  169:node_3  =  16.3510n
 + 169:s       = 699.9998m  170:node_1  =  51.1851m  170:s       = 700.0000m
 + 171:node_1  =  51.1851m  171:s       = 700.0000m  172:node_1  =  51.1851m
 + 172:s       = 700.0000m  173:node_1  =  51.1851m  173:s       = 700.0000m
 + 174:node_1  =  51.1851m  174:s       = 700.0000m  175:node_1  = 699.9999m
 + 175:s       = 699.9998m  176:node_1  =  11.8743m  176:node_2  =  62.5210m
 + 176:s       = 700.0000m  177:node_1  =  51.1852m  177:s       = 700.0000m
 + 178:node_1  = 699.9999m  178:node_2  = 699.9998m  178:s       = 699.9997m
 + 179:node_1  =   8.0279m  179:node_2  =  19.8873m  179:node_3  =  70.1629m
 + 179:s       = 700.0000m  180:node_1  =  11.8743m  180:node_2  =  62.5210m
 + 180:s       = 700.0000m  181:node_1  =  51.1851m  181:s       = 700.0000m
 + 182:node_1  = 699.9999m  182:node_2  = 699.9998m  182:node_3  = 699.9997m
 + 182:s       = 699.9995m  183:node_1  =   6.2309m  183:node_2  =  14.2538m
 + 183:node_3  =  26.1012m  183:node_4  =  76.0843m  183:s       = 700.0000m
 + 184:node_1  =   8.0279m  184:node_2  =  19.8873m  184:node_3  =  70.1629m
 + 184:s       = 700.0000m  185:node_1  =  11.8743m  185:node_2  =  62.5210m
 + 185:s       = 700.0000m  186:node_1  =  51.1851m  186:s       = 700.0000m
 + 187:node_1  = 699.9999m  187:node_2  = 699.9997m  187:node_3  = 699.9996m
 + 187:node_4  = 699.9995m  187:s       = 699.9994m  188:node_1  = 699.9999m
 + 188:node_2  = 700.0000m  188:node_3  =  15.7641n  188:s       = 699.9998m
 + 189:node_1  = 699.9999m  189:node_2  = 700.0000m  189:node_3  =  15.7641n
 + 189:s       = 699.9998m  190:node_1  = 699.9999m  190:node_2  = 700.0000m
 + 190:node_3  =  16.2345n  190:s       = 699.9998m  191:node_1  = 699.9999m
 + 191:node_2  = 700.0000m  191:node_3  =  15.2941n  191:s       = 699.9998m
 + 192:node_1  = 699.9999m  192:node_2  = 700.0000m  192:node_3  =  16.3515n
 + 192:s       = 699.9998m  193:node_1  = 699.9999m  193:node_2  = 700.0000m
 + 193:node_3  =  15.9197n  193:s       = 699.9998m  194:node_1  = 699.9999m
 + 194:node_2  = 700.0000m  194:node_3  =  16.3897n  194:s       = 699.9998m
 + 195:node_1  = 699.9999m  195:node_2  = 700.0000m  195:node_3  =  16.3510n
 + 195:s       = 699.9998m  196:node_1  =  51.1851m  196:s       = 700.0000m
 + 197:node_1  =  51.1851m  197:s       = 700.0000m  198:node_1  =  51.1851m
 + 198:s       = 700.0000m  199:node_1  =  51.1851m  199:s       = 700.0000m
 + 200:node_1  =  51.1851m  200:s       = 700.0000m  201:node_1  = 699.9999m
 + 201:s       = 699.9998m  202:node_1  =  11.8743m  202:node_2  =  62.5210m
 + 202:s       = 700.0000m  203:node_1  =  51.1852m  203:s       = 700.0000m
 + 204:node_1  = 699.9999m  204:node_2  = 699.9998m  204:s       = 699.9997m
 + 205:node_1  =   8.0279m  205:node_2  =  19.8873m  205:node_3  =  70.1629m
 + 205:s       = 700.0000m  206:node_1  =  11.8743m  206:node_2  =  62.5210m
 + 206:s       = 700.0000m  207:node_1  =  51.1851m  207:s       = 700.0000m
 + 208:node_1  = 699.9999m  208:node_2  = 699.9998m  208:node_3  = 699.9997m
 + 208:s       = 699.9995m  209:node_1  =   6.2309m  209:node_2  =  14.2538m
 + 209:node_3  =  26.1012m  209:node_4  =  76.0843m  209:s       = 700.0000m
 + 210:node_1  =   8.0279m  210:node_2  =  19.8873m  210:node_3  =  70.1629m
 + 210:s       = 700.0000m  211:node_1  =  11.8743m  211:node_2  =  62.5210m
 + 211:s       = 700.0000m  212:node_1  =  51.1851m  212:s       = 700.0000m
 + 213:node_1  = 699.9999m  213:node_2  = 699.9997m  213:node_3  = 699.9996m
 + 213:node_4  = 699.9995m  213:s       = 699.9994m  214:node_1  = 699.9999m
 + 214:node_2  = 700.0000m  214:node_3  =  16.7046n  214:s       = 699.9998m
 + 215:node_1  = 699.9999m  215:node_2  = 700.0000m  215:node_3  =  15.7641n
 + 215:s       = 699.9998m  216:node_1  = 699.9999m  216:node_2  = 700.0000m
 + 216:node_3  =  16.7048n  216:s       = 699.9998m  217:node_1  = 699.9999m
 + 217:node_2  = 700.0000m  217:node_3  =  15.2941n  217:s       = 699.9998m


          ***** job concluded
1****** HSPICE -- J-2014.09-2 64-BIT (Oct 22 2014) win64 ******                 
 ******  
 adder_test

 ****** job statistics summary tnom=  25.000 temp=  25.000 ******

  ******  HSPICE Threads Information  ******

  Command Line Threads Count :     2
  Available CPU Count        :     4
  Actual Threads Count       :     2


  ******  Circuit Statistics  ******
  # nodes       =    4469 # elements   =    1763
  # resistors   =       0 # capacitors =       0 # inductors   =       0
  # mutual_inds =       0 # vccs       =       0 # vcvs        =       0
  # cccs        =       0 # ccvs       =       0 # volt_srcs   =       3
  # curr_srcs   =       0 # diodes     =       0 # bjts        =       0
  # jfets       =       0 # mosfets    =    1760 # U elements  =       0
  # T elements  =       0 # W elements =       0 # B elements  =       0
  # S elements  =       0 # P elements =       0 # va device   =       0
  # vector_srcs =      98 # N elements =       0


  ******  Runtime Statistics (seconds)  ******

  analysis           time    # points   tot. iter  conv.iter
  op point           0.30           1          24
  transient         38.10         251        7023        1303 rev=        26
  readin             0.05
  errchk             0.34
  setup              0.12
  output             0.00


           peak memory used         79.09 megabytes
           total cpu time           38.93 seconds
           total elapsed time       38.98 seconds
           job started at     17:33:43 06/05/2022
           job ended   at     17:34:22 06/05/2022


  lic: Release hspice token(s) 
 lic: total license checkout elapse time:        0.05(s)
