 ****** HSPICE -- J-2014.09-2 64-BIT (Oct 22 2014) win64 ******                 
  Copyright (C) 2014 Synopsys, Inc. All Rights Reserved.                        
  Unpublished-rights reserved under US copyright laws.
  This program is protected by law and is subject to the
  terms and conditions of the license agreement from Synopsys.
  Use of this program is your acceptance to be bound by the
  license agreement. HSPICE is the trademark of Synopsys, Inc.
  Input File: adder_test.sp                                                     
  Command line options: -mt 2 -i adder_test.sp -o adder_test.lis
  lic:  
  lic: FLEXlm: v10.9.8 
  lic: USER:   渣渣基            HOSTNAME: DESKTOP-NPIU9RN 
  lic: HOSTID: "f430b9ae4e60 005056c00001 005056c00008 5413792f7072 00ff4a66f477
  00ffbbf96e68 00ffd5f
  lic: Using FLEXlm license file: 
  lic: 27000@DESKTOP-NPIU9RN 
  lic: Checkout 1 hspice 
  lic: License/Maintenance for hspice will expire on 30-dec-2030/2019.2019 
  lic: 1(in_use)/99(total) FLOATING license(s) on SERVER 27000@DESKTOP-NPIU9RN 
  lic:   
 Init: read install configuration file: C:\synopsys\Hspice_J-2014.09-2\meta.cfg
  **warning** (../PTM-MG/modelfiles\../modelfiles/lstp/7nfet.pm:4) Model nfet device geometries will not be checked against the limits set by lmin, lmax, nfinmin and nfinmax. To enable this check, add a period(.) to the model name(i.e. enable model selector).
  **info**  the obsolete option acct is ignored
 scientific notation:
 a=10**-18  f=10**-15  p=10**-12  n=10**-9  u=10**-6
 m=10**-3   k=10**3    x=10**6    g=10**9 
1****** HSPICE -- J-2014.09-2 64-BIT (Oct 22 2014) win64 ******                 
 ******  
 adder_test

 ****** circuit name directory
 circuit number to circuit name directory
   number circuitname                     definition         multiplier
        0 main circuit
        1 xinv_size_8_0.                  inv_size_8         1.00 
        2 xinv_size_8_1.                  inv_size_8         1.00 
        3 xinv_size_8_2.                  inv_size_8         1.00 
        4 xinv_size_8_3.                  inv_size_8         1.00 
        5 xinv_size_8_4.                  inv_size_8         1.00 
        6 xinv_size_8_5.                  inv_size_8         1.00 
        7 xinv_size_8_6.                  inv_size_8         1.00 
        8 xinv_size_8_7.                  inv_size_8         1.00 
        9 xinv_size_8_8.                  inv_size_8         1.00 
       10 xinv_size_8_9.                  inv_size_8         1.00 
       11 xinv_size_8_10.                 inv_size_8         1.00 
       12 xinv_size_8_11.                 inv_size_8         1.00 
       13 xinv_size_8_12.                 inv_size_8         1.00 
       14 xinv_size_8_13.                 inv_size_8         1.00 
       15 xinv_size_8_14.                 inv_size_8         1.00 
       16 xinv_size_8_15.                 inv_size_8         1.00 
       17 xinv_size_8_16.                 inv_size_8         1.00 
       18 xinv_size_8_17.                 inv_size_8         1.00 
       19 xinv_size_8_18.                 inv_size_8         1.00 
       20 xinv_size_8_19.                 inv_size_8         1.00 
       21 xinv_size_8_20.                 inv_size_8         1.00 
       22 xinv_size_8_21.                 inv_size_8         1.00 
       23 xinv_size_8_22.                 inv_size_8         1.00 
       24 xinv_size_8_23.                 inv_size_8         1.00 
       25 xinv_size_8_24.                 inv_size_8         1.00 
       26 xinv_size_8_25.                 inv_size_8         1.00 
       27 xinv_size_8_26.                 inv_size_8         1.00 
       28 xinv_size_8_27.                 inv_size_8         1.00 
       29 xinv_size_8_28.                 inv_size_8         1.00 
       30 xinv_size_8_29.                 inv_size_8         1.00 
       31 xinv_size_8_30.                 inv_size_8         1.00 
       32 xinv_size_8_31.                 inv_size_8         1.00 
       33 xinv_size_8_32.                 inv_size_8         1.00 
       34 xadder_32_base.                 adder_32_base      1.00 
       35 xinv_size_8_0.xpfet.            pfet               1.00 
       36 xinv_size_8_0.xnfet.            nfet               1.00 
       37 xinv_size_8_1.xpfet.            pfet               1.00 
       38 xinv_size_8_1.xnfet.            nfet               1.00 
       39 xinv_size_8_2.xpfet.            pfet               1.00 
       40 xinv_size_8_2.xnfet.            nfet               1.00 
       41 xinv_size_8_3.xpfet.            pfet               1.00 
       42 xinv_size_8_3.xnfet.            nfet               1.00 
       43 xinv_size_8_4.xpfet.            pfet               1.00 
       44 xinv_size_8_4.xnfet.            nfet               1.00 
       45 xinv_size_8_5.xpfet.            pfet               1.00 
       46 xinv_size_8_5.xnfet.            nfet               1.00 
       47 xinv_size_8_6.xpfet.            pfet               1.00 
       48 xinv_size_8_6.xnfet.            nfet               1.00 
       49 xinv_size_8_7.xpfet.            pfet               1.00 
       50 xinv_size_8_7.xnfet.            nfet               1.00 
       51 xinv_size_8_8.xpfet.            pfet               1.00 
       52 xinv_size_8_8.xnfet.            nfet               1.00 
       53 xinv_size_8_9.xpfet.            pfet               1.00 
       54 xinv_size_8_9.xnfet.            nfet               1.00 
       55 xinv_size_8_10.xpfet.           pfet               1.00 
       56 xinv_size_8_10.xnfet.           nfet               1.00 
       57 xinv_size_8_11.xpfet.           pfet               1.00 
       58 xinv_size_8_11.xnfet.           nfet               1.00 
       59 xinv_size_8_12.xpfet.           pfet               1.00 
       60 xinv_size_8_12.xnfet.           nfet               1.00 
       61 xinv_size_8_13.xpfet.           pfet               1.00 
       62 xinv_size_8_13.xnfet.           nfet               1.00 
       63 xinv_size_8_14.xpfet.           pfet               1.00 
       64 xinv_size_8_14.xnfet.           nfet               1.00 
       65 xinv_size_8_15.xpfet.           pfet               1.00 
       66 xinv_size_8_15.xnfet.           nfet               1.00 
       67 xinv_size_8_16.xpfet.           pfet               1.00 
       68 xinv_size_8_16.xnfet.           nfet               1.00 
       69 xinv_size_8_17.xpfet.           pfet               1.00 
       70 xinv_size_8_17.xnfet.           nfet               1.00 
       71 xinv_size_8_18.xpfet.           pfet               1.00 
       72 xinv_size_8_18.xnfet.           nfet               1.00 
       73 xinv_size_8_19.xpfet.           pfet               1.00 
       74 xinv_size_8_19.xnfet.           nfet               1.00 
       75 xinv_size_8_20.xpfet.           pfet               1.00 
       76 xinv_size_8_20.xnfet.           nfet               1.00 
       77 xinv_size_8_21.xpfet.           pfet               1.00 
       78 xinv_size_8_21.xnfet.           nfet               1.00 
       79 xinv_size_8_22.xpfet.           pfet               1.00 
       80 xinv_size_8_22.xnfet.           nfet               1.00 
       81 xinv_size_8_23.xpfet.           pfet               1.00 
       82 xinv_size_8_23.xnfet.           nfet               1.00 
       83 xinv_size_8_24.xpfet.           pfet               1.00 
       84 xinv_size_8_24.xnfet.           nfet               1.00 
       85 xinv_size_8_25.xpfet.           pfet               1.00 
       86 xinv_size_8_25.xnfet.           nfet               1.00 
       87 xinv_size_8_26.xpfet.           pfet               1.00 
       88 xinv_size_8_26.xnfet.           nfet               1.00 
       89 xinv_size_8_27.xpfet.           pfet               1.00 
       90 xinv_size_8_27.xnfet.           nfet               1.00 
       91 xinv_size_8_28.xpfet.           pfet               1.00 
       92 xinv_size_8_28.xnfet.           nfet               1.00 
       93 xinv_size_8_29.xpfet.           pfet               1.00 
       94 xinv_size_8_29.xnfet.           nfet               1.00 
       95 xinv_size_8_30.xpfet.           pfet               1.00 
       96 xinv_size_8_30.xnfet.           nfet               1.00 
       97 xinv_size_8_31.xpfet.           pfet               1.00 
       98 xinv_size_8_31.xnfet.           nfet               1.00 
       99 xinv_size_8_32.xpfet.           pfet               1.00 
      100 xinv_size_8_32.xnfet.           nfet               1.00 
      101 xadder_32_base.xcla_4_1.        cla_4              1.00 
      102 xadder_32_base.xcla_4_2.        cla_4              1.00 
      103 xadder_32_base.xcla_4_3.        cla_4              1.00 
      104 xadder_32_base.xcla_4_4.        cla_4              1.00 
      105 xadder_32_base.xcla_4_5.        cla_4              1.00 
      106 xadder_32_base.xcla_4_6.        cla_4              1.00 
      107 xadder_32_base.xcla_4_7.        cla_4              1.00 
      108 xadder_32_base.xcla_4_8.        cla_4              1.00 
      109 xadder_32_base.xcla_4_1.xxor_p0.
                                            xor                1.00 
      110 xadder_32_base.xcla_4_1.xxor_p1.
                                            xor                1.00 
      111 xadder_32_base.xcla_4_1.xxor_p2.
                                            xor                1.00 
      112 xadder_32_base.xcla_4_1.xxor_p3.
                                            xor                1.00 
      113 xadder_32_base.xcla_4_1.xand2_g0.
                                            and2               1.00 
      114 xadder_32_base.xcla_4_1.xand2_g1.
                                            and2               1.00 
      115 xadder_32_base.xcla_4_1.xand2_g2.
                                            and2               1.00 
      116 xadder_32_base.xcla_4_1.xand2_g3.
                                            and2               1.00 
      117 xadder_32_base.xcla_4_1.xand2_c1.
                                            and2               1.00 
      118 xadder_32_base.xcla_4_1.xor2_c1.
                                            or2                1.00 
      119 xadder_32_base.xcla_4_1.xand3_c2.
                                            and3               1.00 
      120 xadder_32_base.xcla_4_1.xand2_c2.
                                            and2               1.00 
      121 xadder_32_base.xcla_4_1.xor3_c2.
                                            or3                1.00 
      122 xadder_32_base.xcla_4_1.xand4_c3.
                                            and4               1.00 
      123 xadder_32_base.xcla_4_1.xand3_c3.
                                            and3               1.00 
      124 xadder_32_base.xcla_4_1.xand2_c3.
                                            and2               1.00 
      125 xadder_32_base.xcla_4_1.xor4_c3.
                                            or4                1.00 
      126 xadder_32_base.xcla_4_1.xand5_c4.
                                            and5               1.00 
      127 xadder_32_base.xcla_4_1.xand4_c4.
                                            and4               1.00 
      128 xadder_32_base.xcla_4_1.xand3_c4.
                                            and3               1.00 
      129 xadder_32_base.xcla_4_1.xand2_c4.
                                            and2               1.00 
      130 xadder_32_base.xcla_4_1.xor5_c4.
                                            or5                1.00 
      131 xadder_32_base.xcla_4_1.xxor_s0.
                                            xor                1.00 
      132 xadder_32_base.xcla_4_1.xxor_s1.
                                            xor                1.00 
      133 xadder_32_base.xcla_4_1.xxor_s2.
                                            xor                1.00 
      134 xadder_32_base.xcla_4_1.xxor_s3.
                                            xor                1.00 
      135 xadder_32_base.xcla_4_2.xxor_p0.
                                            xor                1.00 
      136 xadder_32_base.xcla_4_2.xxor_p1.
                                            xor                1.00 
      137 xadder_32_base.xcla_4_2.xxor_p2.
                                            xor                1.00 
      138 xadder_32_base.xcla_4_2.xxor_p3.
                                            xor                1.00 
      139 xadder_32_base.xcla_4_2.xand2_g0.
                                            and2               1.00 
      140 xadder_32_base.xcla_4_2.xand2_g1.
                                            and2               1.00 
      141 xadder_32_base.xcla_4_2.xand2_g2.
                                            and2               1.00 
      142 xadder_32_base.xcla_4_2.xand2_g3.
                                            and2               1.00 
      143 xadder_32_base.xcla_4_2.xand2_c1.
                                            and2               1.00 
      144 xadder_32_base.xcla_4_2.xor2_c1.
                                            or2                1.00 
      145 xadder_32_base.xcla_4_2.xand3_c2.
                                            and3               1.00 
      146 xadder_32_base.xcla_4_2.xand2_c2.
                                            and2               1.00 
      147 xadder_32_base.xcla_4_2.xor3_c2.
                                            or3                1.00 
      148 xadder_32_base.xcla_4_2.xand4_c3.
                                            and4               1.00 
      149 xadder_32_base.xcla_4_2.xand3_c3.
                                            and3               1.00 
      150 xadder_32_base.xcla_4_2.xand2_c3.
                                            and2               1.00 
      151 xadder_32_base.xcla_4_2.xor4_c3.
                                            or4                1.00 
      152 xadder_32_base.xcla_4_2.xand5_c4.
                                            and5               1.00 
      153 xadder_32_base.xcla_4_2.xand4_c4.
                                            and4               1.00 
      154 xadder_32_base.xcla_4_2.xand3_c4.
                                            and3               1.00 
      155 xadder_32_base.xcla_4_2.xand2_c4.
                                            and2               1.00 
      156 xadder_32_base.xcla_4_2.xor5_c4.
                                            or5                1.00 
      157 xadder_32_base.xcla_4_2.xxor_s0.
                                            xor                1.00 
      158 xadder_32_base.xcla_4_2.xxor_s1.
                                            xor                1.00 
      159 xadder_32_base.xcla_4_2.xxor_s2.
                                            xor                1.00 
      160 xadder_32_base.xcla_4_2.xxor_s3.
                                            xor                1.00 
      161 xadder_32_base.xcla_4_3.xxor_p0.
                                            xor                1.00 
      162 xadder_32_base.xcla_4_3.xxor_p1.
                                            xor                1.00 
      163 xadder_32_base.xcla_4_3.xxor_p2.
                                            xor                1.00 
      164 xadder_32_base.xcla_4_3.xxor_p3.
                                            xor                1.00 
      165 xadder_32_base.xcla_4_3.xand2_g0.
                                            and2               1.00 
      166 xadder_32_base.xcla_4_3.xand2_g1.
                                            and2               1.00 
      167 xadder_32_base.xcla_4_3.xand2_g2.
                                            and2               1.00 
      168 xadder_32_base.xcla_4_3.xand2_g3.
                                            and2               1.00 
      169 xadder_32_base.xcla_4_3.xand2_c1.
                                            and2               1.00 
      170 xadder_32_base.xcla_4_3.xor2_c1.
                                            or2                1.00 
      171 xadder_32_base.xcla_4_3.xand3_c2.
                                            and3               1.00 
      172 xadder_32_base.xcla_4_3.xand2_c2.
                                            and2               1.00 
      173 xadder_32_base.xcla_4_3.xor3_c2.
                                            or3                1.00 
      174 xadder_32_base.xcla_4_3.xand4_c3.
                                            and4               1.00 
      175 xadder_32_base.xcla_4_3.xand3_c3.
                                            and3               1.00 
      176 xadder_32_base.xcla_4_3.xand2_c3.
                                            and2               1.00 
      177 xadder_32_base.xcla_4_3.xor4_c3.
                                            or4                1.00 
      178 xadder_32_base.xcla_4_3.xand5_c4.
                                            and5               1.00 
      179 xadder_32_base.xcla_4_3.xand4_c4.
                                            and4               1.00 
      180 xadder_32_base.xcla_4_3.xand3_c4.
                                            and3               1.00 
      181 xadder_32_base.xcla_4_3.xand2_c4.
                                            and2               1.00 
      182 xadder_32_base.xcla_4_3.xor5_c4.
                                            or5                1.00 
      183 xadder_32_base.xcla_4_3.xxor_s0.
                                            xor                1.00 
      184 xadder_32_base.xcla_4_3.xxor_s1.
                                            xor                1.00 
      185 xadder_32_base.xcla_4_3.xxor_s2.
                                            xor                1.00 
      186 xadder_32_base.xcla_4_3.xxor_s3.
                                            xor                1.00 
      187 xadder_32_base.xcla_4_4.xxor_p0.
                                            xor                1.00 
      188 xadder_32_base.xcla_4_4.xxor_p1.
                                            xor                1.00 
      189 xadder_32_base.xcla_4_4.xxor_p2.
                                            xor                1.00 
      190 xadder_32_base.xcla_4_4.xxor_p3.
                                            xor                1.00 
      191 xadder_32_base.xcla_4_4.xand2_g0.
                                            and2               1.00 
      192 xadder_32_base.xcla_4_4.xand2_g1.
                                            and2               1.00 
      193 xadder_32_base.xcla_4_4.xand2_g2.
                                            and2               1.00 
      194 xadder_32_base.xcla_4_4.xand2_g3.
                                            and2               1.00 
      195 xadder_32_base.xcla_4_4.xand2_c1.
                                            and2               1.00 
      196 xadder_32_base.xcla_4_4.xor2_c1.
                                            or2                1.00 
      197 xadder_32_base.xcla_4_4.xand3_c2.
                                            and3               1.00 
      198 xadder_32_base.xcla_4_4.xand2_c2.
                                            and2               1.00 
      199 xadder_32_base.xcla_4_4.xor3_c2.
                                            or3                1.00 
      200 xadder_32_base.xcla_4_4.xand4_c3.
                                            and4               1.00 
      201 xadder_32_base.xcla_4_4.xand3_c3.
                                            and3               1.00 
      202 xadder_32_base.xcla_4_4.xand2_c3.
                                            and2               1.00 
      203 xadder_32_base.xcla_4_4.xor4_c3.
                                            or4                1.00 
      204 xadder_32_base.xcla_4_4.xand5_c4.
                                            and5               1.00 
      205 xadder_32_base.xcla_4_4.xand4_c4.
                                            and4               1.00 
      206 xadder_32_base.xcla_4_4.xand3_c4.
                                            and3               1.00 
      207 xadder_32_base.xcla_4_4.xand2_c4.
                                            and2               1.00 
      208 xadder_32_base.xcla_4_4.xor5_c4.
                                            or5                1.00 
      209 xadder_32_base.xcla_4_4.xxor_s0.
                                            xor                1.00 
      210 xadder_32_base.xcla_4_4.xxor_s1.
                                            xor                1.00 
      211 xadder_32_base.xcla_4_4.xxor_s2.
                                            xor                1.00 
      212 xadder_32_base.xcla_4_4.xxor_s3.
                                            xor                1.00 
      213 xadder_32_base.xcla_4_5.xxor_p0.
                                            xor                1.00 
      214 xadder_32_base.xcla_4_5.xxor_p1.
                                            xor                1.00 
      215 xadder_32_base.xcla_4_5.xxor_p2.
                                            xor                1.00 
      216 xadder_32_base.xcla_4_5.xxor_p3.
                                            xor                1.00 
      217 xadder_32_base.xcla_4_5.xand2_g0.
                                            and2               1.00 
      218 xadder_32_base.xcla_4_5.xand2_g1.
                                            and2               1.00 
      219 xadder_32_base.xcla_4_5.xand2_g2.
                                            and2               1.00 
      220 xadder_32_base.xcla_4_5.xand2_g3.
                                            and2               1.00 
      221 xadder_32_base.xcla_4_5.xand2_c1.
                                            and2               1.00 
      222 xadder_32_base.xcla_4_5.xor2_c1.
                                            or2                1.00 
      223 xadder_32_base.xcla_4_5.xand3_c2.
                                            and3               1.00 
      224 xadder_32_base.xcla_4_5.xand2_c2.
                                            and2               1.00 
      225 xadder_32_base.xcla_4_5.xor3_c2.
                                            or3                1.00 
      226 xadder_32_base.xcla_4_5.xand4_c3.
                                            and4               1.00 
      227 xadder_32_base.xcla_4_5.xand3_c3.
                                            and3               1.00 
      228 xadder_32_base.xcla_4_5.xand2_c3.
                                            and2               1.00 
      229 xadder_32_base.xcla_4_5.xor4_c3.
                                            or4                1.00 
      230 xadder_32_base.xcla_4_5.xand5_c4.
                                            and5               1.00 
      231 xadder_32_base.xcla_4_5.xand4_c4.
                                            and4               1.00 
      232 xadder_32_base.xcla_4_5.xand3_c4.
                                            and3               1.00 
      233 xadder_32_base.xcla_4_5.xand2_c4.
                                            and2               1.00 
      234 xadder_32_base.xcla_4_5.xor5_c4.
                                            or5                1.00 
      235 xadder_32_base.xcla_4_5.xxor_s0.
                                            xor                1.00 
      236 xadder_32_base.xcla_4_5.xxor_s1.
                                            xor                1.00 
      237 xadder_32_base.xcla_4_5.xxor_s2.
                                            xor                1.00 
      238 xadder_32_base.xcla_4_5.xxor_s3.
                                            xor                1.00 
      239 xadder_32_base.xcla_4_6.xxor_p0.
                                            xor                1.00 
      240 xadder_32_base.xcla_4_6.xxor_p1.
                                            xor                1.00 
      241 xadder_32_base.xcla_4_6.xxor_p2.
                                            xor                1.00 
      242 xadder_32_base.xcla_4_6.xxor_p3.
                                            xor                1.00 
      243 xadder_32_base.xcla_4_6.xand2_g0.
                                            and2               1.00 
      244 xadder_32_base.xcla_4_6.xand2_g1.
                                            and2               1.00 
      245 xadder_32_base.xcla_4_6.xand2_g2.
                                            and2               1.00 
      246 xadder_32_base.xcla_4_6.xand2_g3.
                                            and2               1.00 
      247 xadder_32_base.xcla_4_6.xand2_c1.
                                            and2               1.00 
      248 xadder_32_base.xcla_4_6.xor2_c1.
                                            or2                1.00 
      249 xadder_32_base.xcla_4_6.xand3_c2.
                                            and3               1.00 
      250 xadder_32_base.xcla_4_6.xand2_c2.
                                            and2               1.00 
      251 xadder_32_base.xcla_4_6.xor3_c2.
                                            or3                1.00 
      252 xadder_32_base.xcla_4_6.xand4_c3.
                                            and4               1.00 
      253 xadder_32_base.xcla_4_6.xand3_c3.
                                            and3               1.00 
      254 xadder_32_base.xcla_4_6.xand2_c3.
                                            and2               1.00 
      255 xadder_32_base.xcla_4_6.xor4_c3.
                                            or4                1.00 
      256 xadder_32_base.xcla_4_6.xand5_c4.
                                            and5               1.00 
      257 xadder_32_base.xcla_4_6.xand4_c4.
                                            and4               1.00 
      258 xadder_32_base.xcla_4_6.xand3_c4.
                                            and3               1.00 
      259 xadder_32_base.xcla_4_6.xand2_c4.
                                            and2               1.00 
      260 xadder_32_base.xcla_4_6.xor5_c4.
                                            or5                1.00 
      261 xadder_32_base.xcla_4_6.xxor_s0.
                                            xor                1.00 
      262 xadder_32_base.xcla_4_6.xxor_s1.
                                            xor                1.00 
      263 xadder_32_base.xcla_4_6.xxor_s2.
                                            xor                1.00 
      264 xadder_32_base.xcla_4_6.xxor_s3.
                                            xor                1.00 
      265 xadder_32_base.xcla_4_7.xxor_p0.
                                            xor                1.00 
      266 xadder_32_base.xcla_4_7.xxor_p1.
                                            xor                1.00 
      267 xadder_32_base.xcla_4_7.xxor_p2.
                                            xor                1.00 
      268 xadder_32_base.xcla_4_7.xxor_p3.
                                            xor                1.00 
      269 xadder_32_base.xcla_4_7.xand2_g0.
                                            and2               1.00 
      270 xadder_32_base.xcla_4_7.xand2_g1.
                                            and2               1.00 
      271 xadder_32_base.xcla_4_7.xand2_g2.
                                            and2               1.00 
      272 xadder_32_base.xcla_4_7.xand2_g3.
                                            and2               1.00 
      273 xadder_32_base.xcla_4_7.xand2_c1.
                                            and2               1.00 
      274 xadder_32_base.xcla_4_7.xor2_c1.
                                            or2                1.00 
      275 xadder_32_base.xcla_4_7.xand3_c2.
                                            and3               1.00 
      276 xadder_32_base.xcla_4_7.xand2_c2.
                                            and2               1.00 
      277 xadder_32_base.xcla_4_7.xor3_c2.
                                            or3                1.00 
      278 xadder_32_base.xcla_4_7.xand4_c3.
                                            and4               1.00 
      279 xadder_32_base.xcla_4_7.xand3_c3.
                                            and3               1.00 
      280 xadder_32_base.xcla_4_7.xand2_c3.
                                            and2               1.00 
      281 xadder_32_base.xcla_4_7.xor4_c3.
                                            or4                1.00 
      282 xadder_32_base.xcla_4_7.xand5_c4.
                                            and5               1.00 
      283 xadder_32_base.xcla_4_7.xand4_c4.
                                            and4               1.00 
      284 xadder_32_base.xcla_4_7.xand3_c4.
                                            and3               1.00 
      285 xadder_32_base.xcla_4_7.xand2_c4.
                                            and2               1.00 
      286 xadder_32_base.xcla_4_7.xor5_c4.
                                            or5                1.00 
      287 xadder_32_base.xcla_4_7.xxor_s0.
                                            xor                1.00 
      288 xadder_32_base.xcla_4_7.xxor_s1.
                                            xor                1.00 
      289 xadder_32_base.xcla_4_7.xxor_s2.
                                            xor                1.00 
      290 xadder_32_base.xcla_4_7.xxor_s3.
                                            xor                1.00 
      291 xadder_32_base.xcla_4_8.xxor_p0.
                                            xor                1.00 
      292 xadder_32_base.xcla_4_8.xxor_p1.
                                            xor                1.00 
      293 xadder_32_base.xcla_4_8.xxor_p2.
                                            xor                1.00 
      294 xadder_32_base.xcla_4_8.xxor_p3.
                                            xor                1.00 
      295 xadder_32_base.xcla_4_8.xand2_g0.
                                            and2               1.00 
      296 xadder_32_base.xcla_4_8.xand2_g1.
                                            and2               1.00 
      297 xadder_32_base.xcla_4_8.xand2_g2.
                                            and2               1.00 
      298 xadder_32_base.xcla_4_8.xand2_g3.
                                            and2               1.00 
      299 xadder_32_base.xcla_4_8.xand2_c1.
                                            and2               1.00 
      300 xadder_32_base.xcla_4_8.xor2_c1.
                                            or2                1.00 
      301 xadder_32_base.xcla_4_8.xand3_c2.
                                            and3               1.00 
      302 xadder_32_base.xcla_4_8.xand2_c2.
                                            and2               1.00 
      303 xadder_32_base.xcla_4_8.xor3_c2.
                                            or3                1.00 
      304 xadder_32_base.xcla_4_8.xand4_c3.
                                            and4               1.00 
      305 xadder_32_base.xcla_4_8.xand3_c3.
                                            and3               1.00 
      306 xadder_32_base.xcla_4_8.xand2_c3.
                                            and2               1.00 
      307 xadder_32_base.xcla_4_8.xor4_c3.
                                            or4                1.00 
      308 xadder_32_base.xcla_4_8.xand5_c4.
                                            and5               1.00 
      309 xadder_32_base.xcla_4_8.xand4_c4.
                                            and4               1.00 
      310 xadder_32_base.xcla_4_8.xand3_c4.
                                            and3               1.00 
      311 xadder_32_base.xcla_4_8.xand2_c4.
                                            and2               1.00 
      312 xadder_32_base.xcla_4_8.xor5_c4.
                                            or5                1.00 
      313 xadder_32_base.xcla_4_8.xxor_s0.
                                            xor                1.00 
      314 xadder_32_base.xcla_4_8.xxor_s1.
                                            xor                1.00 
      315 xadder_32_base.xcla_4_8.xxor_s2.
                                            xor                1.00 
      316 xadder_32_base.xcla_4_8.xxor_s3.
                                            xor                1.00 
      317 xadder_32_base.xcla_4_1.xxor_p0.xpfet_1.
                                            pfet               1.00 
      318 xadder_32_base.xcla_4_1.xxor_p0.xpfet_2.
                                            pfet               1.00 
      319 xadder_32_base.xcla_4_1.xxor_p0.xnfet_1.
                                            nfet               1.00 
      320 xadder_32_base.xcla_4_1.xxor_p0.xnfet_2.
                                            nfet               1.00 
      321 xadder_32_base.xcla_4_1.xxor_p0.xpfet_3.
                                            pfet               1.00 
      322 xadder_32_base.xcla_4_1.xxor_p0.xpfet_4.
                                            pfet               1.00 
      323 xadder_32_base.xcla_4_1.xxor_p0.xpfet_5.
                                            pfet               1.00 
      324 xadder_32_base.xcla_4_1.xxor_p0.xnfet_3.
                                            nfet               1.00 
      325 xadder_32_base.xcla_4_1.xxor_p0.xnfet_4.
                                            nfet               1.00 
      326 xadder_32_base.xcla_4_1.xxor_p0.xnfet_5.
                                            nfet               1.00 
      327 xadder_32_base.xcla_4_1.xxor_p1.xpfet_1.
                                            pfet               1.00 
      328 xadder_32_base.xcla_4_1.xxor_p1.xpfet_2.
                                            pfet               1.00 
      329 xadder_32_base.xcla_4_1.xxor_p1.xnfet_1.
                                            nfet               1.00 
      330 xadder_32_base.xcla_4_1.xxor_p1.xnfet_2.
                                            nfet               1.00 
      331 xadder_32_base.xcla_4_1.xxor_p1.xpfet_3.
                                            pfet               1.00 
      332 xadder_32_base.xcla_4_1.xxor_p1.xpfet_4.
                                            pfet               1.00 
      333 xadder_32_base.xcla_4_1.xxor_p1.xpfet_5.
                                            pfet               1.00 
      334 xadder_32_base.xcla_4_1.xxor_p1.xnfet_3.
                                            nfet               1.00 
      335 xadder_32_base.xcla_4_1.xxor_p1.xnfet_4.
                                            nfet               1.00 
      336 xadder_32_base.xcla_4_1.xxor_p1.xnfet_5.
                                            nfet               1.00 
      337 xadder_32_base.xcla_4_1.xxor_p2.xpfet_1.
                                            pfet               1.00 
      338 xadder_32_base.xcla_4_1.xxor_p2.xpfet_2.
                                            pfet               1.00 
      339 xadder_32_base.xcla_4_1.xxor_p2.xnfet_1.
                                            nfet               1.00 
      340 xadder_32_base.xcla_4_1.xxor_p2.xnfet_2.
                                            nfet               1.00 
      341 xadder_32_base.xcla_4_1.xxor_p2.xpfet_3.
                                            pfet               1.00 
      342 xadder_32_base.xcla_4_1.xxor_p2.xpfet_4.
                                            pfet               1.00 
      343 xadder_32_base.xcla_4_1.xxor_p2.xpfet_5.
                                            pfet               1.00 
      344 xadder_32_base.xcla_4_1.xxor_p2.xnfet_3.
                                            nfet               1.00 
      345 xadder_32_base.xcla_4_1.xxor_p2.xnfet_4.
                                            nfet               1.00 
      346 xadder_32_base.xcla_4_1.xxor_p2.xnfet_5.
                                            nfet               1.00 
      347 xadder_32_base.xcla_4_1.xxor_p3.xpfet_1.
                                            pfet               1.00 
      348 xadder_32_base.xcla_4_1.xxor_p3.xpfet_2.
                                            pfet               1.00 
      349 xadder_32_base.xcla_4_1.xxor_p3.xnfet_1.
                                            nfet               1.00 
      350 xadder_32_base.xcla_4_1.xxor_p3.xnfet_2.
                                            nfet               1.00 
      351 xadder_32_base.xcla_4_1.xxor_p3.xpfet_3.
                                            pfet               1.00 
      352 xadder_32_base.xcla_4_1.xxor_p3.xpfet_4.
                                            pfet               1.00 
      353 xadder_32_base.xcla_4_1.xxor_p3.xpfet_5.
                                            pfet               1.00 
      354 xadder_32_base.xcla_4_1.xxor_p3.xnfet_3.
                                            nfet               1.00 
      355 xadder_32_base.xcla_4_1.xxor_p3.xnfet_4.
                                            nfet               1.00 
      356 xadder_32_base.xcla_4_1.xxor_p3.xnfet_5.
                                            nfet               1.00 
      357 xadder_32_base.xcla_4_1.xand2_g0.xpfet_1.
                                            pfet               1.00 
      358 xadder_32_base.xcla_4_1.xand2_g0.xpfet_2.
                                            pfet               1.00 
      359 xadder_32_base.xcla_4_1.xand2_g0.xnfet_1.
                                            nfet               1.00 
      360 xadder_32_base.xcla_4_1.xand2_g0.xnfet_2.
                                            nfet               1.00 
      361 xadder_32_base.xcla_4_1.xand2_g0.xinv_size_1.
                                            inv_size_1         1.00 
      362 xadder_32_base.xcla_4_1.xand2_g1.xpfet_1.
                                            pfet               1.00 
      363 xadder_32_base.xcla_4_1.xand2_g1.xpfet_2.
                                            pfet               1.00 
      364 xadder_32_base.xcla_4_1.xand2_g1.xnfet_1.
                                            nfet               1.00 
      365 xadder_32_base.xcla_4_1.xand2_g1.xnfet_2.
                                            nfet               1.00 
      366 xadder_32_base.xcla_4_1.xand2_g1.xinv_size_1.
                                            inv_size_1         1.00 
      367 xadder_32_base.xcla_4_1.xand2_g2.xpfet_1.
                                            pfet               1.00 
      368 xadder_32_base.xcla_4_1.xand2_g2.xpfet_2.
                                            pfet               1.00 
      369 xadder_32_base.xcla_4_1.xand2_g2.xnfet_1.
                                            nfet               1.00 
      370 xadder_32_base.xcla_4_1.xand2_g2.xnfet_2.
                                            nfet               1.00 
      371 xadder_32_base.xcla_4_1.xand2_g2.xinv_size_1.
                                            inv_size_1         1.00 
      372 xadder_32_base.xcla_4_1.xand2_g3.xpfet_1.
                                            pfet               1.00 
      373 xadder_32_base.xcla_4_1.xand2_g3.xpfet_2.
                                            pfet               1.00 
      374 xadder_32_base.xcla_4_1.xand2_g3.xnfet_1.
                                            nfet               1.00 
      375 xadder_32_base.xcla_4_1.xand2_g3.xnfet_2.
                                            nfet               1.00 
      376 xadder_32_base.xcla_4_1.xand2_g3.xinv_size_1.
                                            inv_size_1         1.00 
      377 xadder_32_base.xcla_4_1.xand2_c1.xpfet_1.
                                            pfet               1.00 
      378 xadder_32_base.xcla_4_1.xand2_c1.xpfet_2.
                                            pfet               1.00 
      379 xadder_32_base.xcla_4_1.xand2_c1.xnfet_1.
                                            nfet               1.00 
      380 xadder_32_base.xcla_4_1.xand2_c1.xnfet_2.
                                            nfet               1.00 
      381 xadder_32_base.xcla_4_1.xand2_c1.xinv_size_1.
                                            inv_size_1         1.00 
      382 xadder_32_base.xcla_4_1.xor2_c1.xpfet_1.
                                            pfet               1.00 
      383 xadder_32_base.xcla_4_1.xor2_c1.xpfet_2.
                                            pfet               1.00 
      384 xadder_32_base.xcla_4_1.xor2_c1.xnfet_1.
                                            nfet               1.00 
      385 xadder_32_base.xcla_4_1.xor2_c1.xnfet_2.
                                            nfet               1.00 
      386 xadder_32_base.xcla_4_1.xor2_c1.xinv_size_1.
                                            inv_size_1         1.00 
      387 xadder_32_base.xcla_4_1.xand3_c2.xpfet_1.
                                            pfet               1.00 
      388 xadder_32_base.xcla_4_1.xand3_c2.xpfet_2.
                                            pfet               1.00 
      389 xadder_32_base.xcla_4_1.xand3_c2.xpfet_3.
                                            pfet               1.00 
      390 xadder_32_base.xcla_4_1.xand3_c2.xnfet_1.
                                            nfet               1.00 
      391 xadder_32_base.xcla_4_1.xand3_c2.xnfet_2.
                                            nfet               1.00 
      392 xadder_32_base.xcla_4_1.xand3_c2.xnfet_3.
                                            nfet               1.00 
      393 xadder_32_base.xcla_4_1.xand3_c2.xinv_size_1.
                                            inv_size_1         1.00 
      394 xadder_32_base.xcla_4_1.xand2_c2.xpfet_1.
                                            pfet               1.00 
      395 xadder_32_base.xcla_4_1.xand2_c2.xpfet_2.
                                            pfet               1.00 
      396 xadder_32_base.xcla_4_1.xand2_c2.xnfet_1.
                                            nfet               1.00 
      397 xadder_32_base.xcla_4_1.xand2_c2.xnfet_2.
                                            nfet               1.00 
      398 xadder_32_base.xcla_4_1.xand2_c2.xinv_size_1.
                                            inv_size_1         1.00 
      399 xadder_32_base.xcla_4_1.xor3_c2.xpfet_1.
                                            pfet               1.00 
      400 xadder_32_base.xcla_4_1.xor3_c2.xpfet_2.
                                            pfet               1.00 
      401 xadder_32_base.xcla_4_1.xor3_c2.xpfet_3.
                                            pfet               1.00 
      402 xadder_32_base.xcla_4_1.xor3_c2.xnfet_1.
                                            nfet               1.00 
      403 xadder_32_base.xcla_4_1.xor3_c2.xnfet_2.
                                            nfet               1.00 
      404 xadder_32_base.xcla_4_1.xor3_c2.xnfet_3.
                                            nfet               1.00 
      405 xadder_32_base.xcla_4_1.xor3_c2.xinv_size_1.
                                            inv_size_1         1.00 
      406 xadder_32_base.xcla_4_1.xand4_c3.xpfet_1.
                                            pfet               1.00 
      407 xadder_32_base.xcla_4_1.xand4_c3.xpfet_2.
                                            pfet               1.00 
      408 xadder_32_base.xcla_4_1.xand4_c3.xpfet_3.
                                            pfet               1.00 
      409 xadder_32_base.xcla_4_1.xand4_c3.xpfet_4.
                                            pfet               1.00 
      410 xadder_32_base.xcla_4_1.xand4_c3.xnfet_1.
                                            nfet               1.00 
      411 xadder_32_base.xcla_4_1.xand4_c3.xnfet_2.
                                            nfet               1.00 
      412 xadder_32_base.xcla_4_1.xand4_c3.xnfet_3.
                                            nfet               1.00 
      413 xadder_32_base.xcla_4_1.xand4_c3.xnfet_4.
                                            nfet               1.00 
      414 xadder_32_base.xcla_4_1.xand4_c3.xinv_size_1.
                                            inv_size_1         1.00 
      415 xadder_32_base.xcla_4_1.xand3_c3.xpfet_1.
                                            pfet               1.00 
      416 xadder_32_base.xcla_4_1.xand3_c3.xpfet_2.
                                            pfet               1.00 
      417 xadder_32_base.xcla_4_1.xand3_c3.xpfet_3.
                                            pfet               1.00 
      418 xadder_32_base.xcla_4_1.xand3_c3.xnfet_1.
                                            nfet               1.00 
      419 xadder_32_base.xcla_4_1.xand3_c3.xnfet_2.
                                            nfet               1.00 
      420 xadder_32_base.xcla_4_1.xand3_c3.xnfet_3.
                                            nfet               1.00 
      421 xadder_32_base.xcla_4_1.xand3_c3.xinv_size_1.
                                            inv_size_1         1.00 
      422 xadder_32_base.xcla_4_1.xand2_c3.xpfet_1.
                                            pfet               1.00 
      423 xadder_32_base.xcla_4_1.xand2_c3.xpfet_2.
                                            pfet               1.00 
      424 xadder_32_base.xcla_4_1.xand2_c3.xnfet_1.
                                            nfet               1.00 
      425 xadder_32_base.xcla_4_1.xand2_c3.xnfet_2.
                                            nfet               1.00 
      426 xadder_32_base.xcla_4_1.xand2_c3.xinv_size_1.
                                            inv_size_1         1.00 
      427 xadder_32_base.xcla_4_1.xor4_c3.xpfet_1.
                                            pfet               1.00 
      428 xadder_32_base.xcla_4_1.xor4_c3.xpfet_2.
                                            pfet               1.00 
      429 xadder_32_base.xcla_4_1.xor4_c3.xpfet_3.
                                            pfet               1.00 
      430 xadder_32_base.xcla_4_1.xor4_c3.xpfet_4.
                                            pfet               1.00 
      431 xadder_32_base.xcla_4_1.xor4_c3.xnfet_1.
                                            nfet               1.00 
      432 xadder_32_base.xcla_4_1.xor4_c3.xnfet_2.
                                            nfet               1.00 
      433 xadder_32_base.xcla_4_1.xor4_c3.xnfet_3.
                                            nfet               1.00 
      434 xadder_32_base.xcla_4_1.xor4_c3.xnfet_4.
                                            nfet               1.00 
      435 xadder_32_base.xcla_4_1.xor4_c3.xinv_size_1.
                                            inv_size_1         1.00 
      436 xadder_32_base.xcla_4_1.xand5_c4.xpfet_1.
                                            pfet               1.00 
      437 xadder_32_base.xcla_4_1.xand5_c4.xpfet_2.
                                            pfet               1.00 
      438 xadder_32_base.xcla_4_1.xand5_c4.xpfet_3.
                                            pfet               1.00 
      439 xadder_32_base.xcla_4_1.xand5_c4.xpfet_4.
                                            pfet               1.00 
      440 xadder_32_base.xcla_4_1.xand5_c4.xpfet_5.
                                            pfet               1.00 
      441 xadder_32_base.xcla_4_1.xand5_c4.xnfet_1.
                                            nfet               1.00 
      442 xadder_32_base.xcla_4_1.xand5_c4.xnfet_2.
                                            nfet               1.00 
      443 xadder_32_base.xcla_4_1.xand5_c4.xnfet_3.
                                            nfet               1.00 
      444 xadder_32_base.xcla_4_1.xand5_c4.xnfet_4.
                                            nfet               1.00 
      445 xadder_32_base.xcla_4_1.xand5_c4.xnfet_5.
                                            nfet               1.00 
      446 xadder_32_base.xcla_4_1.xand5_c4.xinv_size_1.
                                            inv_size_1         1.00 
      447 xadder_32_base.xcla_4_1.xand4_c4.xpfet_1.
                                            pfet               1.00 
      448 xadder_32_base.xcla_4_1.xand4_c4.xpfet_2.
                                            pfet               1.00 
      449 xadder_32_base.xcla_4_1.xand4_c4.xpfet_3.
                                            pfet               1.00 
      450 xadder_32_base.xcla_4_1.xand4_c4.xpfet_4.
                                            pfet               1.00 
      451 xadder_32_base.xcla_4_1.xand4_c4.xnfet_1.
                                            nfet               1.00 
      452 xadder_32_base.xcla_4_1.xand4_c4.xnfet_2.
                                            nfet               1.00 
      453 xadder_32_base.xcla_4_1.xand4_c4.xnfet_3.
                                            nfet               1.00 
      454 xadder_32_base.xcla_4_1.xand4_c4.xnfet_4.
                                            nfet               1.00 
      455 xadder_32_base.xcla_4_1.xand4_c4.xinv_size_1.
                                            inv_size_1         1.00 
      456 xadder_32_base.xcla_4_1.xand3_c4.xpfet_1.
                                            pfet               1.00 
      457 xadder_32_base.xcla_4_1.xand3_c4.xpfet_2.
                                            pfet               1.00 
      458 xadder_32_base.xcla_4_1.xand3_c4.xpfet_3.
                                            pfet               1.00 
      459 xadder_32_base.xcla_4_1.xand3_c4.xnfet_1.
                                            nfet               1.00 
      460 xadder_32_base.xcla_4_1.xand3_c4.xnfet_2.
                                            nfet               1.00 
      461 xadder_32_base.xcla_4_1.xand3_c4.xnfet_3.
                                            nfet               1.00 
      462 xadder_32_base.xcla_4_1.xand3_c4.xinv_size_1.
                                            inv_size_1         1.00 
      463 xadder_32_base.xcla_4_1.xand2_c4.xpfet_1.
                                            pfet               1.00 
      464 xadder_32_base.xcla_4_1.xand2_c4.xpfet_2.
                                            pfet               1.00 
      465 xadder_32_base.xcla_4_1.xand2_c4.xnfet_1.
                                            nfet               1.00 
      466 xadder_32_base.xcla_4_1.xand2_c4.xnfet_2.
                                            nfet               1.00 
      467 xadder_32_base.xcla_4_1.xand2_c4.xinv_size_1.
                                            inv_size_1         1.00 
      468 xadder_32_base.xcla_4_1.xor5_c4.xpfet_1.
                                            pfet               1.00 
      469 xadder_32_base.xcla_4_1.xor5_c4.xpfet_2.
                                            pfet               1.00 
      470 xadder_32_base.xcla_4_1.xor5_c4.xpfet_3.
                                            pfet               1.00 
      471 xadder_32_base.xcla_4_1.xor5_c4.xpfet_4.
                                            pfet               1.00 
      472 xadder_32_base.xcla_4_1.xor5_c4.xpfet_5.
                                            pfet               1.00 
      473 xadder_32_base.xcla_4_1.xor5_c4.xnfet_1.
                                            nfet               1.00 
      474 xadder_32_base.xcla_4_1.xor5_c4.xnfet_2.
                                            nfet               1.00 
      475 xadder_32_base.xcla_4_1.xor5_c4.xnfet_3.
                                            nfet               1.00 
      476 xadder_32_base.xcla_4_1.xor5_c4.xnfet_4.
                                            nfet               1.00 
      477 xadder_32_base.xcla_4_1.xor5_c4.xnfet_5.
                                            nfet               1.00 
      478 xadder_32_base.xcla_4_1.xor5_c4.xinv_size_1.
                                            inv_size_1         1.00 
      479 xadder_32_base.xcla_4_1.xxor_s0.xpfet_1.
                                            pfet               1.00 
      480 xadder_32_base.xcla_4_1.xxor_s0.xpfet_2.
                                            pfet               1.00 
      481 xadder_32_base.xcla_4_1.xxor_s0.xnfet_1.
                                            nfet               1.00 
      482 xadder_32_base.xcla_4_1.xxor_s0.xnfet_2.
                                            nfet               1.00 
      483 xadder_32_base.xcla_4_1.xxor_s0.xpfet_3.
                                            pfet               1.00 
      484 xadder_32_base.xcla_4_1.xxor_s0.xpfet_4.
                                            pfet               1.00 
      485 xadder_32_base.xcla_4_1.xxor_s0.xpfet_5.
                                            pfet               1.00 
      486 xadder_32_base.xcla_4_1.xxor_s0.xnfet_3.
                                            nfet               1.00 
      487 xadder_32_base.xcla_4_1.xxor_s0.xnfet_4.
                                            nfet               1.00 
      488 xadder_32_base.xcla_4_1.xxor_s0.xnfet_5.
                                            nfet               1.00 
      489 xadder_32_base.xcla_4_1.xxor_s1.xpfet_1.
                                            pfet               1.00 
      490 xadder_32_base.xcla_4_1.xxor_s1.xpfet_2.
                                            pfet               1.00 
      491 xadder_32_base.xcla_4_1.xxor_s1.xnfet_1.
                                            nfet               1.00 
      492 xadder_32_base.xcla_4_1.xxor_s1.xnfet_2.
                                            nfet               1.00 
      493 xadder_32_base.xcla_4_1.xxor_s1.xpfet_3.
                                            pfet               1.00 
      494 xadder_32_base.xcla_4_1.xxor_s1.xpfet_4.
                                            pfet               1.00 
      495 xadder_32_base.xcla_4_1.xxor_s1.xpfet_5.
                                            pfet               1.00 
      496 xadder_32_base.xcla_4_1.xxor_s1.xnfet_3.
                                            nfet               1.00 
      497 xadder_32_base.xcla_4_1.xxor_s1.xnfet_4.
                                            nfet               1.00 
      498 xadder_32_base.xcla_4_1.xxor_s1.xnfet_5.
                                            nfet               1.00 
      499 xadder_32_base.xcla_4_1.xxor_s2.xpfet_1.
                                            pfet               1.00 
      500 xadder_32_base.xcla_4_1.xxor_s2.xpfet_2.
                                            pfet               1.00 
      501 xadder_32_base.xcla_4_1.xxor_s2.xnfet_1.
                                            nfet               1.00 
      502 xadder_32_base.xcla_4_1.xxor_s2.xnfet_2.
                                            nfet               1.00 
      503 xadder_32_base.xcla_4_1.xxor_s2.xpfet_3.
                                            pfet               1.00 
      504 xadder_32_base.xcla_4_1.xxor_s2.xpfet_4.
                                            pfet               1.00 
      505 xadder_32_base.xcla_4_1.xxor_s2.xpfet_5.
                                            pfet               1.00 
      506 xadder_32_base.xcla_4_1.xxor_s2.xnfet_3.
                                            nfet               1.00 
      507 xadder_32_base.xcla_4_1.xxor_s2.xnfet_4.
                                            nfet               1.00 
      508 xadder_32_base.xcla_4_1.xxor_s2.xnfet_5.
                                            nfet               1.00 
      509 xadder_32_base.xcla_4_1.xxor_s3.xpfet_1.
                                            pfet               1.00 
      510 xadder_32_base.xcla_4_1.xxor_s3.xpfet_2.
                                            pfet               1.00 
      511 xadder_32_base.xcla_4_1.xxor_s3.xnfet_1.
                                            nfet               1.00 
      512 xadder_32_base.xcla_4_1.xxor_s3.xnfet_2.
                                            nfet               1.00 
      513 xadder_32_base.xcla_4_1.xxor_s3.xpfet_3.
                                            pfet               1.00 
      514 xadder_32_base.xcla_4_1.xxor_s3.xpfet_4.
                                            pfet               1.00 
      515 xadder_32_base.xcla_4_1.xxor_s3.xpfet_5.
                                            pfet               1.00 
      516 xadder_32_base.xcla_4_1.xxor_s3.xnfet_3.
                                            nfet               1.00 
      517 xadder_32_base.xcla_4_1.xxor_s3.xnfet_4.
                                            nfet               1.00 
      518 xadder_32_base.xcla_4_1.xxor_s3.xnfet_5.
                                            nfet               1.00 
      519 xadder_32_base.xcla_4_2.xxor_p0.xpfet_1.
                                            pfet               1.00 
      520 xadder_32_base.xcla_4_2.xxor_p0.xpfet_2.
                                            pfet               1.00 
      521 xadder_32_base.xcla_4_2.xxor_p0.xnfet_1.
                                            nfet               1.00 
      522 xadder_32_base.xcla_4_2.xxor_p0.xnfet_2.
                                            nfet               1.00 
      523 xadder_32_base.xcla_4_2.xxor_p0.xpfet_3.
                                            pfet               1.00 
      524 xadder_32_base.xcla_4_2.xxor_p0.xpfet_4.
                                            pfet               1.00 
      525 xadder_32_base.xcla_4_2.xxor_p0.xpfet_5.
                                            pfet               1.00 
      526 xadder_32_base.xcla_4_2.xxor_p0.xnfet_3.
                                            nfet               1.00 
      527 xadder_32_base.xcla_4_2.xxor_p0.xnfet_4.
                                            nfet               1.00 
      528 xadder_32_base.xcla_4_2.xxor_p0.xnfet_5.
                                            nfet               1.00 
      529 xadder_32_base.xcla_4_2.xxor_p1.xpfet_1.
                                            pfet               1.00 
      530 xadder_32_base.xcla_4_2.xxor_p1.xpfet_2.
                                            pfet               1.00 
      531 xadder_32_base.xcla_4_2.xxor_p1.xnfet_1.
                                            nfet               1.00 
      532 xadder_32_base.xcla_4_2.xxor_p1.xnfet_2.
                                            nfet               1.00 
      533 xadder_32_base.xcla_4_2.xxor_p1.xpfet_3.
                                            pfet               1.00 
      534 xadder_32_base.xcla_4_2.xxor_p1.xpfet_4.
                                            pfet               1.00 
      535 xadder_32_base.xcla_4_2.xxor_p1.xpfet_5.
                                            pfet               1.00 
      536 xadder_32_base.xcla_4_2.xxor_p1.xnfet_3.
                                            nfet               1.00 
      537 xadder_32_base.xcla_4_2.xxor_p1.xnfet_4.
                                            nfet               1.00 
      538 xadder_32_base.xcla_4_2.xxor_p1.xnfet_5.
                                            nfet               1.00 
      539 xadder_32_base.xcla_4_2.xxor_p2.xpfet_1.
                                            pfet               1.00 
      540 xadder_32_base.xcla_4_2.xxor_p2.xpfet_2.
                                            pfet               1.00 
      541 xadder_32_base.xcla_4_2.xxor_p2.xnfet_1.
                                            nfet               1.00 
      542 xadder_32_base.xcla_4_2.xxor_p2.xnfet_2.
                                            nfet               1.00 
      543 xadder_32_base.xcla_4_2.xxor_p2.xpfet_3.
                                            pfet               1.00 
      544 xadder_32_base.xcla_4_2.xxor_p2.xpfet_4.
                                            pfet               1.00 
      545 xadder_32_base.xcla_4_2.xxor_p2.xpfet_5.
                                            pfet               1.00 
      546 xadder_32_base.xcla_4_2.xxor_p2.xnfet_3.
                                            nfet               1.00 
      547 xadder_32_base.xcla_4_2.xxor_p2.xnfet_4.
                                            nfet               1.00 
      548 xadder_32_base.xcla_4_2.xxor_p2.xnfet_5.
                                            nfet               1.00 
      549 xadder_32_base.xcla_4_2.xxor_p3.xpfet_1.
                                            pfet               1.00 
      550 xadder_32_base.xcla_4_2.xxor_p3.xpfet_2.
                                            pfet               1.00 
      551 xadder_32_base.xcla_4_2.xxor_p3.xnfet_1.
                                            nfet               1.00 
      552 xadder_32_base.xcla_4_2.xxor_p3.xnfet_2.
                                            nfet               1.00 
      553 xadder_32_base.xcla_4_2.xxor_p3.xpfet_3.
                                            pfet               1.00 
      554 xadder_32_base.xcla_4_2.xxor_p3.xpfet_4.
                                            pfet               1.00 
      555 xadder_32_base.xcla_4_2.xxor_p3.xpfet_5.
                                            pfet               1.00 
      556 xadder_32_base.xcla_4_2.xxor_p3.xnfet_3.
                                            nfet               1.00 
      557 xadder_32_base.xcla_4_2.xxor_p3.xnfet_4.
                                            nfet               1.00 
      558 xadder_32_base.xcla_4_2.xxor_p3.xnfet_5.
                                            nfet               1.00 
      559 xadder_32_base.xcla_4_2.xand2_g0.xpfet_1.
                                            pfet               1.00 
      560 xadder_32_base.xcla_4_2.xand2_g0.xpfet_2.
                                            pfet               1.00 
      561 xadder_32_base.xcla_4_2.xand2_g0.xnfet_1.
                                            nfet               1.00 
      562 xadder_32_base.xcla_4_2.xand2_g0.xnfet_2.
                                            nfet               1.00 
      563 xadder_32_base.xcla_4_2.xand2_g0.xinv_size_1.
                                            inv_size_1         1.00 
      564 xadder_32_base.xcla_4_2.xand2_g1.xpfet_1.
                                            pfet               1.00 
      565 xadder_32_base.xcla_4_2.xand2_g1.xpfet_2.
                                            pfet               1.00 
      566 xadder_32_base.xcla_4_2.xand2_g1.xnfet_1.
                                            nfet               1.00 
      567 xadder_32_base.xcla_4_2.xand2_g1.xnfet_2.
                                            nfet               1.00 
      568 xadder_32_base.xcla_4_2.xand2_g1.xinv_size_1.
                                            inv_size_1         1.00 
      569 xadder_32_base.xcla_4_2.xand2_g2.xpfet_1.
                                            pfet               1.00 
      570 xadder_32_base.xcla_4_2.xand2_g2.xpfet_2.
                                            pfet               1.00 
      571 xadder_32_base.xcla_4_2.xand2_g2.xnfet_1.
                                            nfet               1.00 
      572 xadder_32_base.xcla_4_2.xand2_g2.xnfet_2.
                                            nfet               1.00 
      573 xadder_32_base.xcla_4_2.xand2_g2.xinv_size_1.
                                            inv_size_1         1.00 
      574 xadder_32_base.xcla_4_2.xand2_g3.xpfet_1.
                                            pfet               1.00 
      575 xadder_32_base.xcla_4_2.xand2_g3.xpfet_2.
                                            pfet               1.00 
      576 xadder_32_base.xcla_4_2.xand2_g3.xnfet_1.
                                            nfet               1.00 
      577 xadder_32_base.xcla_4_2.xand2_g3.xnfet_2.
                                            nfet               1.00 
      578 xadder_32_base.xcla_4_2.xand2_g3.xinv_size_1.
                                            inv_size_1         1.00 
      579 xadder_32_base.xcla_4_2.xand2_c1.xpfet_1.
                                            pfet               1.00 
      580 xadder_32_base.xcla_4_2.xand2_c1.xpfet_2.
                                            pfet               1.00 
      581 xadder_32_base.xcla_4_2.xand2_c1.xnfet_1.
                                            nfet               1.00 
      582 xadder_32_base.xcla_4_2.xand2_c1.xnfet_2.
                                            nfet               1.00 
      583 xadder_32_base.xcla_4_2.xand2_c1.xinv_size_1.
                                            inv_size_1         1.00 
      584 xadder_32_base.xcla_4_2.xor2_c1.xpfet_1.
                                            pfet               1.00 
      585 xadder_32_base.xcla_4_2.xor2_c1.xpfet_2.
                                            pfet               1.00 
      586 xadder_32_base.xcla_4_2.xor2_c1.xnfet_1.
                                            nfet               1.00 
      587 xadder_32_base.xcla_4_2.xor2_c1.xnfet_2.
                                            nfet               1.00 
      588 xadder_32_base.xcla_4_2.xor2_c1.xinv_size_1.
                                            inv_size_1         1.00 
      589 xadder_32_base.xcla_4_2.xand3_c2.xpfet_1.
                                            pfet               1.00 
      590 xadder_32_base.xcla_4_2.xand3_c2.xpfet_2.
                                            pfet               1.00 
      591 xadder_32_base.xcla_4_2.xand3_c2.xpfet_3.
                                            pfet               1.00 
      592 xadder_32_base.xcla_4_2.xand3_c2.xnfet_1.
                                            nfet               1.00 
      593 xadder_32_base.xcla_4_2.xand3_c2.xnfet_2.
                                            nfet               1.00 
      594 xadder_32_base.xcla_4_2.xand3_c2.xnfet_3.
                                            nfet               1.00 
      595 xadder_32_base.xcla_4_2.xand3_c2.xinv_size_1.
                                            inv_size_1         1.00 
      596 xadder_32_base.xcla_4_2.xand2_c2.xpfet_1.
                                            pfet               1.00 
      597 xadder_32_base.xcla_4_2.xand2_c2.xpfet_2.
                                            pfet               1.00 
      598 xadder_32_base.xcla_4_2.xand2_c2.xnfet_1.
                                            nfet               1.00 
      599 xadder_32_base.xcla_4_2.xand2_c2.xnfet_2.
                                            nfet               1.00 
      600 xadder_32_base.xcla_4_2.xand2_c2.xinv_size_1.
                                            inv_size_1         1.00 
      601 xadder_32_base.xcla_4_2.xor3_c2.xpfet_1.
                                            pfet               1.00 
      602 xadder_32_base.xcla_4_2.xor3_c2.xpfet_2.
                                            pfet               1.00 
      603 xadder_32_base.xcla_4_2.xor3_c2.xpfet_3.
                                            pfet               1.00 
      604 xadder_32_base.xcla_4_2.xor3_c2.xnfet_1.
                                            nfet               1.00 
      605 xadder_32_base.xcla_4_2.xor3_c2.xnfet_2.
                                            nfet               1.00 
      606 xadder_32_base.xcla_4_2.xor3_c2.xnfet_3.
                                            nfet               1.00 
      607 xadder_32_base.xcla_4_2.xor3_c2.xinv_size_1.
                                            inv_size_1         1.00 
      608 xadder_32_base.xcla_4_2.xand4_c3.xpfet_1.
                                            pfet               1.00 
      609 xadder_32_base.xcla_4_2.xand4_c3.xpfet_2.
                                            pfet               1.00 
      610 xadder_32_base.xcla_4_2.xand4_c3.xpfet_3.
                                            pfet               1.00 
      611 xadder_32_base.xcla_4_2.xand4_c3.xpfet_4.
                                            pfet               1.00 
      612 xadder_32_base.xcla_4_2.xand4_c3.xnfet_1.
                                            nfet               1.00 
      613 xadder_32_base.xcla_4_2.xand4_c3.xnfet_2.
                                            nfet               1.00 
      614 xadder_32_base.xcla_4_2.xand4_c3.xnfet_3.
                                            nfet               1.00 
      615 xadder_32_base.xcla_4_2.xand4_c3.xnfet_4.
                                            nfet               1.00 
      616 xadder_32_base.xcla_4_2.xand4_c3.xinv_size_1.
                                            inv_size_1         1.00 
      617 xadder_32_base.xcla_4_2.xand3_c3.xpfet_1.
                                            pfet               1.00 
      618 xadder_32_base.xcla_4_2.xand3_c3.xpfet_2.
                                            pfet               1.00 
      619 xadder_32_base.xcla_4_2.xand3_c3.xpfet_3.
                                            pfet               1.00 
      620 xadder_32_base.xcla_4_2.xand3_c3.xnfet_1.
                                            nfet               1.00 
      621 xadder_32_base.xcla_4_2.xand3_c3.xnfet_2.
                                            nfet               1.00 
      622 xadder_32_base.xcla_4_2.xand3_c3.xnfet_3.
                                            nfet               1.00 
      623 xadder_32_base.xcla_4_2.xand3_c3.xinv_size_1.
                                            inv_size_1         1.00 
      624 xadder_32_base.xcla_4_2.xand2_c3.xpfet_1.
                                            pfet               1.00 
      625 xadder_32_base.xcla_4_2.xand2_c3.xpfet_2.
                                            pfet               1.00 
      626 xadder_32_base.xcla_4_2.xand2_c3.xnfet_1.
                                            nfet               1.00 
      627 xadder_32_base.xcla_4_2.xand2_c3.xnfet_2.
                                            nfet               1.00 
      628 xadder_32_base.xcla_4_2.xand2_c3.xinv_size_1.
                                            inv_size_1         1.00 
      629 xadder_32_base.xcla_4_2.xor4_c3.xpfet_1.
                                            pfet               1.00 
      630 xadder_32_base.xcla_4_2.xor4_c3.xpfet_2.
                                            pfet               1.00 
      631 xadder_32_base.xcla_4_2.xor4_c3.xpfet_3.
                                            pfet               1.00 
      632 xadder_32_base.xcla_4_2.xor4_c3.xpfet_4.
                                            pfet               1.00 
      633 xadder_32_base.xcla_4_2.xor4_c3.xnfet_1.
                                            nfet               1.00 
      634 xadder_32_base.xcla_4_2.xor4_c3.xnfet_2.
                                            nfet               1.00 
      635 xadder_32_base.xcla_4_2.xor4_c3.xnfet_3.
                                            nfet               1.00 
      636 xadder_32_base.xcla_4_2.xor4_c3.xnfet_4.
                                            nfet               1.00 
      637 xadder_32_base.xcla_4_2.xor4_c3.xinv_size_1.
                                            inv_size_1         1.00 
      638 xadder_32_base.xcla_4_2.xand5_c4.xpfet_1.
                                            pfet               1.00 
      639 xadder_32_base.xcla_4_2.xand5_c4.xpfet_2.
                                            pfet               1.00 
      640 xadder_32_base.xcla_4_2.xand5_c4.xpfet_3.
                                            pfet               1.00 
      641 xadder_32_base.xcla_4_2.xand5_c4.xpfet_4.
                                            pfet               1.00 
      642 xadder_32_base.xcla_4_2.xand5_c4.xpfet_5.
                                            pfet               1.00 
      643 xadder_32_base.xcla_4_2.xand5_c4.xnfet_1.
                                            nfet               1.00 
      644 xadder_32_base.xcla_4_2.xand5_c4.xnfet_2.
                                            nfet               1.00 
      645 xadder_32_base.xcla_4_2.xand5_c4.xnfet_3.
                                            nfet               1.00 
      646 xadder_32_base.xcla_4_2.xand5_c4.xnfet_4.
                                            nfet               1.00 
      647 xadder_32_base.xcla_4_2.xand5_c4.xnfet_5.
                                            nfet               1.00 
      648 xadder_32_base.xcla_4_2.xand5_c4.xinv_size_1.
                                            inv_size_1         1.00 
      649 xadder_32_base.xcla_4_2.xand4_c4.xpfet_1.
                                            pfet               1.00 
      650 xadder_32_base.xcla_4_2.xand4_c4.xpfet_2.
                                            pfet               1.00 
      651 xadder_32_base.xcla_4_2.xand4_c4.xpfet_3.
                                            pfet               1.00 
      652 xadder_32_base.xcla_4_2.xand4_c4.xpfet_4.
                                            pfet               1.00 
      653 xadder_32_base.xcla_4_2.xand4_c4.xnfet_1.
                                            nfet               1.00 
      654 xadder_32_base.xcla_4_2.xand4_c4.xnfet_2.
                                            nfet               1.00 
      655 xadder_32_base.xcla_4_2.xand4_c4.xnfet_3.
                                            nfet               1.00 
      656 xadder_32_base.xcla_4_2.xand4_c4.xnfet_4.
                                            nfet               1.00 
      657 xadder_32_base.xcla_4_2.xand4_c4.xinv_size_1.
                                            inv_size_1         1.00 
      658 xadder_32_base.xcla_4_2.xand3_c4.xpfet_1.
                                            pfet               1.00 
      659 xadder_32_base.xcla_4_2.xand3_c4.xpfet_2.
                                            pfet               1.00 
      660 xadder_32_base.xcla_4_2.xand3_c4.xpfet_3.
                                            pfet               1.00 
      661 xadder_32_base.xcla_4_2.xand3_c4.xnfet_1.
                                            nfet               1.00 
      662 xadder_32_base.xcla_4_2.xand3_c4.xnfet_2.
                                            nfet               1.00 
      663 xadder_32_base.xcla_4_2.xand3_c4.xnfet_3.
                                            nfet               1.00 
      664 xadder_32_base.xcla_4_2.xand3_c4.xinv_size_1.
                                            inv_size_1         1.00 
      665 xadder_32_base.xcla_4_2.xand2_c4.xpfet_1.
                                            pfet               1.00 
      666 xadder_32_base.xcla_4_2.xand2_c4.xpfet_2.
                                            pfet               1.00 
      667 xadder_32_base.xcla_4_2.xand2_c4.xnfet_1.
                                            nfet               1.00 
      668 xadder_32_base.xcla_4_2.xand2_c4.xnfet_2.
                                            nfet               1.00 
      669 xadder_32_base.xcla_4_2.xand2_c4.xinv_size_1.
                                            inv_size_1         1.00 
      670 xadder_32_base.xcla_4_2.xor5_c4.xpfet_1.
                                            pfet               1.00 
      671 xadder_32_base.xcla_4_2.xor5_c4.xpfet_2.
                                            pfet               1.00 
      672 xadder_32_base.xcla_4_2.xor5_c4.xpfet_3.
                                            pfet               1.00 
      673 xadder_32_base.xcla_4_2.xor5_c4.xpfet_4.
                                            pfet               1.00 
      674 xadder_32_base.xcla_4_2.xor5_c4.xpfet_5.
                                            pfet               1.00 
      675 xadder_32_base.xcla_4_2.xor5_c4.xnfet_1.
                                            nfet               1.00 
      676 xadder_32_base.xcla_4_2.xor5_c4.xnfet_2.
                                            nfet               1.00 
      677 xadder_32_base.xcla_4_2.xor5_c4.xnfet_3.
                                            nfet               1.00 
      678 xadder_32_base.xcla_4_2.xor5_c4.xnfet_4.
                                            nfet               1.00 
      679 xadder_32_base.xcla_4_2.xor5_c4.xnfet_5.
                                            nfet               1.00 
      680 xadder_32_base.xcla_4_2.xor5_c4.xinv_size_1.
                                            inv_size_1         1.00 
      681 xadder_32_base.xcla_4_2.xxor_s0.xpfet_1.
                                            pfet               1.00 
      682 xadder_32_base.xcla_4_2.xxor_s0.xpfet_2.
                                            pfet               1.00 
      683 xadder_32_base.xcla_4_2.xxor_s0.xnfet_1.
                                            nfet               1.00 
      684 xadder_32_base.xcla_4_2.xxor_s0.xnfet_2.
                                            nfet               1.00 
      685 xadder_32_base.xcla_4_2.xxor_s0.xpfet_3.
                                            pfet               1.00 
      686 xadder_32_base.xcla_4_2.xxor_s0.xpfet_4.
                                            pfet               1.00 
      687 xadder_32_base.xcla_4_2.xxor_s0.xpfet_5.
                                            pfet               1.00 
      688 xadder_32_base.xcla_4_2.xxor_s0.xnfet_3.
                                            nfet               1.00 
      689 xadder_32_base.xcla_4_2.xxor_s0.xnfet_4.
                                            nfet               1.00 
      690 xadder_32_base.xcla_4_2.xxor_s0.xnfet_5.
                                            nfet               1.00 
      691 xadder_32_base.xcla_4_2.xxor_s1.xpfet_1.
                                            pfet               1.00 
      692 xadder_32_base.xcla_4_2.xxor_s1.xpfet_2.
                                            pfet               1.00 
      693 xadder_32_base.xcla_4_2.xxor_s1.xnfet_1.
                                            nfet               1.00 
      694 xadder_32_base.xcla_4_2.xxor_s1.xnfet_2.
                                            nfet               1.00 
      695 xadder_32_base.xcla_4_2.xxor_s1.xpfet_3.
                                            pfet               1.00 
      696 xadder_32_base.xcla_4_2.xxor_s1.xpfet_4.
                                            pfet               1.00 
      697 xadder_32_base.xcla_4_2.xxor_s1.xpfet_5.
                                            pfet               1.00 
      698 xadder_32_base.xcla_4_2.xxor_s1.xnfet_3.
                                            nfet               1.00 
      699 xadder_32_base.xcla_4_2.xxor_s1.xnfet_4.
                                            nfet               1.00 
      700 xadder_32_base.xcla_4_2.xxor_s1.xnfet_5.
                                            nfet               1.00 
      701 xadder_32_base.xcla_4_2.xxor_s2.xpfet_1.
                                            pfet               1.00 
      702 xadder_32_base.xcla_4_2.xxor_s2.xpfet_2.
                                            pfet               1.00 
      703 xadder_32_base.xcla_4_2.xxor_s2.xnfet_1.
                                            nfet               1.00 
      704 xadder_32_base.xcla_4_2.xxor_s2.xnfet_2.
                                            nfet               1.00 
      705 xadder_32_base.xcla_4_2.xxor_s2.xpfet_3.
                                            pfet               1.00 
      706 xadder_32_base.xcla_4_2.xxor_s2.xpfet_4.
                                            pfet               1.00 
      707 xadder_32_base.xcla_4_2.xxor_s2.xpfet_5.
                                            pfet               1.00 
      708 xadder_32_base.xcla_4_2.xxor_s2.xnfet_3.
                                            nfet               1.00 
      709 xadder_32_base.xcla_4_2.xxor_s2.xnfet_4.
                                            nfet               1.00 
[...]
 + 107:c4_t1   =  31.5433n  107:c4_t2   =  31.5433n  107:c4_t3   =  31.5433n
 + 107:c4_t4   =  31.5433n  107:g0      = 699.9998m  107:g1      =  31.6611n
 + 107:g2      =  31.6218n  107:g3      = 699.9999m  107:p0      = 117.7947n
 + 107:p1      = 699.9995m  107:p2      =  31.8575n  107:p3      = 117.7947n
 + 108:c1      = 699.9999m  108:c1_t    = 699.9999m  108:c2      = 699.9999m
 + 108:c2_t1   =  31.5433n  108:c2_t2   =  31.5433n  108:c3      = 699.9999m
 + 108:c3_t1   =  31.5433n  108:c3_t2   =  31.5433n  108:c3_t3   =  31.5433n
 + 108:c4_t1   =  31.5433n  108:c4_t2   =  31.5433n  108:c4_t3   =  31.5433n
 + 108:c4_t4   =  31.5433n  108:g0      =  31.6611n  108:g1      = 699.9998m
 + 108:g2      = 699.9999m  108:g3      = 699.9999m  108:p0      = 699.9996m
 + 108:p1      = 117.9517n  108:p2      = 117.9517n  108:p3      = 117.7947n
 + 109:node_1  = 699.9999m  109:node_2  = 700.0000m  109:node_3  =  17.2355n
 + 109:s       = 699.9998m  110:node_1  =  55.2403m  110:node_2  = 699.9999m
 + 110:node_3  = 649.8246m  110:s       =  29.8775n  111:node_1  = 700.0000m
 + 111:node_2  = 699.9999m  111:node_3  =  31.6057n  111:s       =  31.5825n
 + 112:node_1  =  55.2403m  112:node_2  = 699.9999m  112:node_3  = 649.8246m
 + 112:s       =  29.8775n  113:node_1  =  51.1851m  113:s       = 700.0000m
 + 114:node_1  =  31.6057n  114:s       = 699.9999m  115:node_1  = 649.8246m
 + 115:s       = 699.9999m  116:node_1  =  31.6057n  116:s       = 699.9999m
 + 117:node_1  =  51.1852m  117:s       = 700.0000m  118:node_1  = 699.9999m
 + 118:s       = 699.9998m  119:node_1  = 154.4286m  119:node_2  = 154.4286m
 + 119:s       = 700.0000m  120:node_1  = 649.8245m  120:s       = 699.9999m
 + 121:node_1  = 699.9999m  121:node_2  = 699.9998m  121:s       = 699.9997m
 + 122:node_1  = 176.7613m  122:node_2  = 176.7613m  122:node_3  = 176.7613m
 + 122:s       = 700.0000m  123:node_1  = 638.7390m  123:node_2  = 650.5464m
 + 123:s       = 699.9999m  124:node_1  = 649.8245m  124:s       = 699.9999m
 + 125:node_1  = 699.9999m  125:node_2  = 699.9998m  125:node_3  = 699.9997m
 + 125:s       = 699.9995m  126:node_1  = 188.5229m  126:node_2  = 188.5229m
 + 126:node_3  = 188.5229m  126:node_4  = 188.5229m  126:s       = 700.0000m
 + 127:node_1  = 631.2475m  127:node_2  = 639.2450m  127:node_3  = 651.0312m
 + 127:s       = 699.9999m  128:node_1  = 638.7390m  128:node_2  = 650.5464m
 + 128:s       = 699.9999m  129:node_1  = 649.8245m  129:s       = 699.9999m
 + 130:node_1  = 699.9999m  130:node_2  = 699.9997m  130:node_3  = 699.9996m
 + 130:node_4  = 699.9995m  130:s       = 699.9994m  131:node_1  = 699.9999m
 + 131:node_2  = 700.0000m  131:node_3  =  16.3093n  131:s       = 699.9998m
 + 132:node_1  =  55.2405m  132:node_2  = 699.9996m  132:node_3  = 649.8244m
 + 132:s       =  29.8775n  133:node_1  =  55.2405m  133:node_2  = 699.9996m
 + 133:node_3  = 649.8244m  133:s       =  29.8775n  134:node_1  =  55.2404m
 + 134:node_2  = 699.9996m  134:node_3  = 649.8244m  134:s       =  29.8775n
 + 135:node_1  = 643.6837m  135:node_2  =  73.0468m  135:node_3  =  77.9870n
 + 135:s       =  19.9797n  136:node_1  = 700.0000m  136:node_2  = 699.9998m
 + 136:node_3  =  31.6057n  136:s       =  31.5825n  137:node_1  = 643.6837m
 + 137:node_2  =  73.0468m  137:node_3  =  78.0656n  137:s       =  19.9797n
 + 138:node_1  = 700.0000m  138:node_2  = 699.9998m  138:node_3  =  31.6057n
 + 138:s       =  31.5825n  139:node_1  =  82.2154n  139:s       = 126.2515n
 + 140:node_1  = 649.8246m  140:s       = 699.9999m  141:node_1  =  82.2154n
 + 141:s       = 126.2515n  142:node_1  = 649.8246m  142:s       = 699.9999m
 + 143:node_1  =  51.1852m  143:s       = 700.0000m  144:node_1  = 700.0000m
 + 144:s       =  31.5826n  145:node_1  = 154.4284m  145:node_2  = 154.4284m
 + 145:s       = 700.0000m  146:node_1  =  82.2155n  146:s       = 126.2517n
 + 147:node_1  = 700.0000m  147:node_2  =  55.2404m  147:s       =  29.8775n
 + 148:node_1  =  17.0127m  148:node_2  = 174.3086m  148:node_3  = 174.3086m
 + 148:s       = 700.0000m  149:node_1  =  30.2083n  149:node_2  = 649.8242m
 + 149:s       = 699.9999m  150:node_1  =  51.1852m  150:s       = 700.0000m
 + 151:node_1  =  76.2125m  151:node_2  =  67.2519m  151:node_3  =  53.7063m
 + 151:s       =  29.2932n  152:node_1  = 153.9094m  152:node_2  = 153.9094m
 + 152:node_3  = 277.6617m  152:node_4  = 277.6617m  152:s       = 700.0000m
 + 153:node_1  =  68.3875n  153:node_2  =  98.5957n  153:node_3  = 649.8243m
 + 153:s       = 699.9999m  154:node_1  = 154.4283m  154:node_2  = 154.4283m
 + 154:s       = 700.0000m  155:node_1  =  82.2154n  155:s       = 126.2516n
 + 156:node_1  = 700.0000m  156:node_2  =  76.2124m  156:node_3  =  67.2518m
 + 156:node_4  =  53.7063m  156:s       =  29.2932n  157:node_1  = 699.9999m
 + 157:node_2  = 700.0000m  157:node_3  =  16.3274n  157:s       = 699.9998m
 + 158:node_1  = 643.6839m  158:node_2  =  73.0470m  158:node_3  =  78.0655n
 + 158:s       =  19.9797n  159:node_1  = 700.0000m  159:node_2  = 699.9996m
 + 159:node_3  =  31.6057n  159:s       =  31.5825n  160:node_1  = 643.6840m
 + 160:node_2  =  73.0470m  160:node_3  =  78.0655n  160:s       =  19.9797n
 + 161:node_1  =  55.2403m  161:node_2  = 699.9998m  161:node_3  = 649.8246m
 + 161:s       =  29.8775n  162:node_1  = 643.6837m  162:node_2  =  73.0468m
 + 162:node_3  =  78.0656n  162:s       =  19.9797n  163:node_1  = 699.9999m
 + 163:node_2  = 700.0000m  163:node_3  =  16.7619n  163:s       = 699.9998m
 + 164:node_1  = 700.0000m  164:node_2  = 699.9998m  164:node_3  =  31.6057n
 + 164:s       =  31.5825n  165:node_1  =  31.6057n  165:s       = 699.9999m
 + 166:node_1  =  82.2154n  166:s       = 126.2515n  167:node_1  =  51.1852m
 + 167:s       = 700.0000m  168:node_1  = 649.8246m  168:s       = 699.9999m
 + 169:node_1  =  82.2155n  169:s       = 126.2517n  170:node_1  =  55.2404m
 + 170:s       =  29.8775n  171:node_1  =  30.2083n  171:node_2  = 649.8243m
 + 171:s       = 699.9999m  172:node_1  =  51.1852m  172:s       = 700.0000m
 + 173:node_1  =  67.8889m  173:node_2  =  54.3137m  173:s       =  29.5208n
 + 174:node_1  =  21.2526n  174:node_2  =  50.4123m  174:node_3  = 688.1092m
 + 174:s       = 700.0000m  175:node_1  =  11.8743m  175:node_2  =  62.5211m
 + 175:s       = 700.0000m  176:node_1  =  31.6057n  176:s       = 699.9999m
 + 177:node_1  = 699.9999m  177:node_2  = 699.9998m  177:node_3  = 699.9997m
 + 177:s       = 699.9995m  178:node_1  =  59.4318n  178:node_2  =  80.6844n
 + 178:node_3  =  50.4123m  178:node_4  = 688.1092m  178:s       = 700.0000m
 + 179:node_1  = 153.8579m  179:node_2  = 153.8579m  179:node_3  = 194.8967m
 + 179:s       = 700.0000m  180:node_1  =  69.7849n  180:node_2  = 101.3905n
 + 180:s       = 699.9999m  181:node_1  = 649.8243m  181:s       = 699.9999m
 + 182:node_1  = 699.9999m  182:node_2  = 699.9997m  182:node_3  = 699.9996m
 + 182:node_4  = 699.9995m  182:s       = 699.9994m  183:node_1  = 643.6837m
 + 183:node_2  =  73.0470m  183:node_3  =  78.0656n  183:s       =  19.9797n
 + 184:node_1  = 700.0000m  184:node_2  = 699.9996m  184:node_3  =  31.6057n
 + 184:s       =  31.5825n  185:node_1  = 700.0000m  185:node_2  = 699.9996m
 + 185:node_3  =  31.6057n  185:s       =  31.5825n  186:node_1  =  55.2406m
 + 186:node_2  = 699.9996m  186:node_3  = 649.8242m  186:s       =  29.8775n
 + 187:node_1  = 643.6837m  187:node_2  =  73.0468m  187:node_3  =  77.9870n
 + 187:s       =  19.9797n  188:node_1  = 643.6837m  188:node_2  =  73.0468m
 + 188:node_3  =  78.0656n  188:s       =  19.9797n  189:node_1  = 643.6837m
 + 189:node_2  =  73.0468m  189:node_3  =  78.0656n  189:s       =  19.9797n
 + 190:node_1  =  55.2403m  190:node_2  = 699.9997m  190:node_3  = 649.8246m
 + 190:s       =  29.8775n  191:node_1  =  82.2154n  191:s       = 126.2515n
 + 192:node_1  =  82.2154n  192:s       = 126.2515n  193:node_1  =  82.2154n
 + 193:s       = 126.2515n  194:node_1  =  31.6057n  194:s       = 699.9999m
 + 195:node_1  =  51.1852m  195:s       = 700.0000m  196:node_1  = 700.0000m
 + 196:s       =  31.5826n  197:node_1  =  11.8744m  197:node_2  =  62.5210m
 + 197:s       = 700.0000m  198:node_1  =  31.6057n  198:s       = 699.9999m
 + 199:node_1  =  67.8889m  199:node_2  =  54.3137m  199:s       =  29.5208n
 + 200:node_1  =   8.0280m  200:node_2  =  19.8874m  200:node_3  =  70.1629m
 + 200:s       = 700.0000m  201:node_1  =  21.2583n  201:node_2  =  51.1852m
 + 201:s       = 700.0000m  202:node_1  =  31.6057n  202:s       = 699.9999m
 + 203:node_1  =  76.2125m  203:node_2  =  67.2519m  203:node_3  =  53.7063m
 + 203:s       =  29.2932n  204:node_1  = 153.7983m  204:node_2  = 153.7983m
 + 204:node_3  = 163.9123m  204:node_4  = 203.3861m  204:s       = 700.0000m
 + 205:node_1  =  59.4375n  205:node_2  =  80.6957n  205:node_3  =  51.1852m
 + 205:s       = 700.0000m  206:node_1  =  69.7848n  206:node_2  = 101.3905n
 + 206:s       = 699.9999m  207:node_1  =  82.2154n  207:s       = 126.2517n
 + 208:node_1  = 700.0000m  208:node_2  =  76.2124m  208:node_3  =  67.2518m
 + 208:node_4  =  53.7063m  208:s       =  29.2932n  209:node_1  = 699.9999m
 + 209:node_2  = 700.0000m  209:node_3  =  15.8660n  209:s       = 699.9998m
 + 210:node_1  = 700.0000m  210:node_2  = 699.9996m  210:node_3  =  31.6057n
 + 210:s       =  31.5825n  211:node_1  = 700.0000m  211:node_2  = 699.9996m
 + 211:node_3  =  31.6057n  211:s       =  31.5825n  212:node_1  = 643.6841m
 + 212:node_2  =  73.0470m  212:node_3  =  78.0655n  212:s       =  19.9797n
 + 213:node_1  =  55.2403m  213:node_2  = 699.9998m  213:node_3  = 649.8246m
 + 213:s       =  29.8775n  214:node_1  = 643.6837m  214:node_2  =  73.0468m
 + 214:node_3  =  78.0656n  214:s       =  19.9797n  215:node_1  = 700.0000m
 + 215:node_2  = 699.9997m  215:node_3  =  31.6057n  215:s       =  31.5825n
 + 216:node_1  = 700.0000m  216:node_2  = 699.9998m  216:node_3  =  31.6057n
 + 216:s       =  31.5825n  217:node_1  =  31.6057n  217:s       = 699.9999m
 + 218:node_1  =  82.2154n  218:s       = 126.2515n  219:node_1  = 649.8246m
 + 219:s       = 699.9999m  220:node_1  = 649.8246m  220:s       = 699.9999m
 + 221:node_1  =  82.2155n  221:s       = 126.2517n  222:node_1  =  55.2404m
 + 222:s       =  29.8775n  223:node_1  =  30.2083n  223:node_2  = 649.8243m
 + 223:s       = 699.9999m  224:node_1  =  51.1852m  224:s       = 700.0000m
 + 225:node_1  =  67.8889m  225:node_2  =  54.3137m  225:s       =  29.5208n
 + 226:node_1  =  68.3874n  226:node_2  =  98.5956n  226:node_3  = 649.8243m
 + 226:s       = 699.9999m  227:node_1  = 154.4282m  227:node_2  = 154.4282m
 + 227:s       = 700.0000m  228:node_1  =  82.2154n  228:s       = 126.2517n
 + 229:node_1  = 700.0000m  229:node_2  =  67.8888m  229:node_3  =  54.3136m
 + 229:s       =  29.5207n  230:node_1  = 106.5664n  230:node_2  = 174.9537n
 + 230:node_3  = 205.1618n  230:node_4  = 649.8244m  230:s       = 699.9999m
 + 231:node_1  = 176.7609m  231:node_2  = 176.7609m  231:node_3  = 176.7609m
 + 231:s       = 700.0000m  232:node_1  = 132.8482n  232:node_2  = 227.5173n
 + 232:s       = 284.0072n  233:node_1  = 649.8242m  233:s       = 699.9999m
 + 234:node_1  = 700.0000m  234:node_2  = 700.0000m  234:node_3  =  67.8888m
 + 234:node_4  =  54.3136m  234:s       =  29.5207n  235:node_1  = 643.6837m
 + 235:node_2  =  73.0470m  235:node_3  =  78.0656n  235:s       =  19.9797n
 + 236:node_1  = 700.0000m  236:node_2  = 699.9996m  236:node_3  =  31.6057n
 + 236:s       =  31.5825n  237:node_1  = 643.6841m  237:node_2  =  73.0471m
 + 237:node_3  =  78.0655n  237:s       =  19.9797n  238:node_1  = 643.6840m
 + 238:node_2  =  73.0470m  238:node_3  =  78.0655n  238:s       =  19.9797n
 + 239:node_1  = 700.0000m  239:node_2  = 699.9997m  239:node_3  =  31.6057n
 + 239:s       =  31.5825n  240:node_1  =  55.2403m  240:node_2  = 699.9997m
 + 240:node_3  = 649.8246m  240:s       =  29.8775n  241:node_1  =  55.2403m
 + 241:node_2  = 699.9998m  241:node_3  = 649.8246m  241:s       =  29.8775n
 + 242:node_1  =  55.2403m  242:node_2  = 699.9998m  242:node_3  = 649.8246m
 + 242:s       =  29.8775n  243:node_1  = 649.8246m  243:s       = 699.9999m
 + 244:node_1  =  31.6057n  244:s       = 699.9999m  245:node_1  =  31.6057n
 + 245:s       = 699.9999m  246:node_1  =  31.6057n  246:s       = 699.9999m
 + 247:node_1  =  82.2155n  247:s       = 126.2518n  248:node_1  =  55.2404m
 + 248:s       =  29.8775n  249:node_1  = 132.8483n  249:node_2  = 227.5174n
 + 249:s       = 284.0074n  250:node_1  = 649.8241m  250:s       = 699.9999m
 + 251:node_1  = 700.0000m  251:node_2  = 700.0000m  251:s       =  31.5825n
 + 252:node_1  = 183.4809n  252:node_2  = 328.7826n  252:node_3  = 435.9053n
 + 252:s       = 504.8491n  253:node_1  = 638.7387m  253:node_2  = 650.5461m
 + 253:s       = 699.9999m  254:node_1  = 649.8242m  254:s       = 699.9999m
 + 255:node_1  = 700.0000m  255:node_2  = 700.0000m  255:node_3  = 700.0000m
 + 255:s       =  31.5825n  256:node_1  = 234.1133n  256:node_2  = 430.0475n
 + 256:node_3  = 587.8026n  256:node_4  = 707.3788n  256:s       = 788.7761n
 + 257:node_1  = 631.2473m  257:node_2  = 639.2447m  257:node_3  = 651.0309m
 + 257:s       = 699.9999m  258:node_1  = 638.7388m  258:node_2  = 650.5461m
 + 258:s       = 699.9999m  259:node_1  = 649.8243m  259:s       = 699.9999m
 + 260:node_1  = 700.0000m  260:node_2  = 700.0000m  260:node_3  = 700.0000m
 + 260:node_4  = 699.9999m  260:s       =  31.5825n  261:node_1  = 643.6840m
 + 261:node_2  =  73.0472m  261:node_3  =  78.0655n  261:s       =  19.9796n
 + 262:node_1  = 643.6841m  262:node_2  =  73.0470m  262:node_3  =  78.0655n
 + 262:s       =  19.9797n  263:node_1  = 643.6840m  263:node_2  =  73.0470m
 + 263:node_3  =  78.0655n  263:s       =  19.9797n  264:node_1  = 643.6839m
 + 264:node_2  =  73.0470m  264:node_3  =  78.0655n  264:s       =  19.9797n
 + 265:node_1  = 643.6837m  265:node_2  =  73.0468m  265:node_3  =  77.9870n
 + 265:s       =  19.9797n  266:node_1  =  55.2403m  266:node_2  = 699.9998m
 + 266:node_3  = 649.8246m  266:s       =  29.8775n  267:node_1  = 699.9999m
 + 267:node_2  = 700.0000m  267:node_3  =  16.3036n  267:s       = 699.9998m
 + 268:node_1  = 643.6837m  268:node_2  =  73.0468m  268:node_3  =  77.9870n
 + 268:s       =  19.9797n  269:node_1  =  82.2154n  269:s       = 126.2515n
 + 270:node_1  =  31.6057n  270:s       = 699.9999m  271:node_1  =  51.1852m
 + 271:s       = 700.0000m  272:node_1  =  82.2154n  272:s       = 126.2515n
 + 273:node_1  =  31.6057n  273:s       = 699.9999m  274:node_1  = 700.0000m
 + 274:s       =  31.5826n  275:node_1  =  69.7849n  275:node_2  = 101.3905n
 + 275:s       = 699.9999m  276:node_1  =  82.2155n  276:s       = 126.2517n
 + 277:node_1  = 700.0000m  277:node_2  =  55.2404m  277:s       =  29.8775n
 + 278:node_1  =  22.0790n  278:node_2  = 154.4284m  278:node_3  = 154.4284m
 + 278:s       = 700.0000m  279:node_1  =  30.2083n  279:node_2  = 649.8242m
 + 279:s       = 699.9999m  280:node_1  =  51.1851m  280:s       = 700.0000m
 + 281:node_1  = 699.9999m  281:node_2  = 699.9998m  281:node_3  = 699.9997m
 + 281:s       = 699.9995m  282:node_1  =  20.8228n  282:node_2  =  17.0126m
 + 282:node_3  = 174.3085m  282:node_4  = 174.3085m  282:s       = 700.0000m
 + 283:node_1  =  21.2526n  283:node_2  =  50.4121m  283:node_3  = 688.1091m
 + 283:s       = 700.0000m  284:node_1  =  11.8744m  284:node_2  =  62.5209m
 + 284:s       = 700.0000m  285:node_1  =  51.1852m  285:s       = 700.0000m
 + 286:node_1  =  82.5496m  286:node_2  =  75.7210m  286:node_3  =  66.7689m
 + 286:node_4  =  53.2459m  286:s       =  29.1240n  287:node_1  = 700.0000m
 + 287:node_2  = 699.9996m  287:node_3  =  31.6057n  287:s       =  31.5826n
 + 288:node_1  = 643.6840m  288:node_2  =  73.0470m  288:node_3  =  78.0655n
 + 288:s       =  19.9797n  289:node_1  = 700.0000m  289:node_2  = 699.9996m
 + 289:node_3  =  31.6057n  289:s       =  31.5825n  290:node_1  = 699.9999m
 + 290:node_2  = 700.0000m  290:node_3  =  15.8578n  290:s       = 699.9998m
 + 291:node_1  = 700.0000m  291:node_2  = 699.9998m  291:node_3  =  31.6057n
 + 291:s       =  31.5825n  292:node_1  = 643.6837m  292:node_2  =  73.0468m
 + 292:node_3  =  78.0656n  292:s       =  19.9797n  293:node_1  = 643.6837m
 + 293:node_2  =  73.0468m  293:node_3  =  78.0656n  293:s       =  19.9797n
 + 294:node_1  = 643.6837m  294:node_2  =  73.0468m  294:node_3  =  77.9870n
 + 294:s       =  19.9797n  295:node_1  = 649.8246m  295:s       = 699.9999m
 + 296:node_1  =  82.2154n  296:s       = 126.2515n  297:node_1  =  82.2154n
 + 297:s       = 126.2515n  298:node_1  =  82.2154n  298:s       = 126.2515n
 + 299:node_1  =  82.2155n  299:s       = 126.2517n  300:node_1  =  55.2404m
 + 300:s       =  29.8775n  301:node_1  =  30.2083n  301:node_2  = 649.8242m
 + 301:s       = 699.9999m  302:node_1  =  51.1852m  302:s       = 700.0000m
 + 303:node_1  =  67.8889m  303:node_2  =  54.3137m  303:s       =  29.5208n
 + 304:node_1  =  21.2526n  304:node_2  =  50.4122m  304:node_3  = 688.1092m
 + 304:s       = 700.0000m  305:node_1  =  11.8744m  305:node_2  =  62.5210m
 + 305:s       = 700.0000m  306:node_1  =  31.6057n  306:s       = 699.9999m
 + 307:node_1  =  76.2125m  307:node_2  =  67.2519m  307:node_3  =  53.7063m
 + 307:s       =  29.2932n  308:node_1  =  20.5570n  308:node_2  =  11.8520m
 + 308:node_3  =  61.9720m  308:node_4  = 691.9474m  308:s       = 700.0000m
 + 309:node_1  =   8.0280m  309:node_2  =  19.8874m  309:node_3  =  70.1629m
 + 309:s       = 700.0000m  310:node_1  =  21.2583n  310:node_2  =  51.1852m
 + 310:s       = 700.0000m  311:node_1  =  31.6058n  311:s       = 699.9999m
 + 312:node_1  =  82.5496m  312:node_2  =  75.7210m  312:node_3  =  66.7689m
 + 312:node_4  =  53.2459m  312:s       =  29.1240n  313:node_1  = 643.6837m
 + 313:node_2  =  73.0470m  313:node_3  =  78.0656n  313:s       =  19.9797n
 + 314:node_1  = 700.0000m  314:node_2  = 699.9996m  314:node_3  =  31.6057n
 + 314:s       =  31.5825n  315:node_1  = 700.0000m  315:node_2  = 699.9996m
 + 315:node_3  =  31.6057n  315:s       =  31.5825n  316:node_1  = 700.0000m
 + 316:node_2  = 699.9996m  316:node_3  =  31.6057n  316:s       =  31.5825n

 ******  
 adder_test

 ****** transient analysis tnom=  25.000 temp=  25.000 ******
 avg_p= -10.1861u  from=   0.          to=  26.0000n

          ***** job concluded
1****** HSPICE -- J-2014.09-2 64-BIT (Oct 22 2014) win64 ******                 
 ******  
 adder_test

 ****** job statistics summary tnom=  25.000 temp=  25.000 ******

  ******  HSPICE Threads Information  ******

  Command Line Threads Count :     2
  Available CPU Count        :     4
  Actual Threads Count       :     2


  ******  Circuit Statistics  ******
  # nodes       =    4634 # elements   =    1829
  # resistors   =       0 # capacitors =       0 # inductors   =       0
  # mutual_inds =       0 # vccs       =       0 # vcvs        =       0
  # cccs        =       0 # ccvs       =       0 # volt_srcs   =       3
  # curr_srcs   =       0 # diodes     =       0 # bjts        =       0
  # jfets       =       0 # mosfets    =    1826 # U elements  =       0
  # T elements  =       0 # W elements =       0 # B elements  =       0
  # S elements  =       0 # P elements =       0 # va device   =       0
  # vector_srcs =      98 # N elements =       0


  ******  Runtime Statistics (seconds)  ******

  analysis           time    # points   tot. iter  conv.iter
  op point          23.46           1        3045
  transient         47.92          27       19231        3184 rev=        24
  readin             0.06
  errchk             0.34
  setup              0.09
  output             0.00


           peak memory used         80.29 megabytes
           total cpu time           71.88 seconds
           total elapsed time       71.94 seconds
           job started at     22:29:51 06/05/2022
           job ended   at     22:31:03 06/05/2022


  lic: Release hspice token(s) 
 lic: total license checkout elapse time:        0.05(s)
