***** HSPICE -- J-2014.09-2 64-BIT (Oct 22 2014) win64 ******
 Input File: adder_test.sp
 lic:
 lic: FLEXlm: v10.9.8
 lic: USER:   渣渣基            HOSTNAME: DESKTOP-NPIU9RN
 lic: HOSTID: "f430b9ae4e60 005056c00001 005056c00008 5413792f7072 00ff4a66f477 00ffbbf96e68 00ffd5f
 lic: Using FLEXlm license file:
 lic: 27000@DESKTOP-NPIU9RN
 lic: Checkout 1 hspice
 lic: License/Maintenance for hspice will expire on 30-dec-2030/2019.2019
 lic: 1(in_use)/99(total) FLOATING license(s) on SERVER 27000@DESKTOP-NPIU9RN
 lic:
 init: begin read circuit files,  cpu clock=  7.70E-02
       option search = C:\synopsys\Hspice_J-2014.09-2\parts\behave\
       option search = C:\synopsys\Hspice_J-2014.09-2\parts\behave\
       option search = C:\synopsys\Hspice_J-2014.09-2\parts\AD\
       option search = C:\synopsys\Hspice_J-2014.09-2\parts\XILINX\
       option search = C:\synopsys\Hspice_J-2014.09-2\parts\TLINE\
       option search = C:\synopsys\Hspice_J-2014.09-2\parts\TI\
       option search = C:\synopsys\Hspice_J-2014.09-2\parts\SIGNET\
       option search = C:\synopsys\Hspice_J-2014.09-2\parts\PCI\
       option search = C:\synopsys\Hspice_J-2014.09-2\parts\LIN_TECH\
       option search = C:\synopsys\Hspice_J-2014.09-2\parts\PET\
       option search = C:\synopsys\Hspice_J-2014.09-2\parts\DI0\
       option search = C:\synopsys\Hspice_J-2014.09-2\parts\COMLINE\
       option search = C:\synopsys\Hspice_J-2014.09-2\parts\BURR_BRM\
       option search = C:\synopsys\Hspice_J-2014.09-2\parts\BJT\
       option search = C:\synopsys\Hspice_J-2014.09-2\parts\behave\
       option search = C:\synopsys\Hspice_J-2014.09-2\parts\AD\
       option runlvl
       option acct
       option list
       option post
 init: end read circuit files,  cpu clock=  8.50E-02 peak memory=        41 mb
 init: begin check errors,  cpu clock=  8.50E-02
 lic: MT Count(3), require 1 extra license token
 lic: Using FLEXlm license file:
 lic: 27000@DESKTOP-NPIU9RN
 lic: Checkout 2 hspice
 lic: License/Maintenance for hspice will expire on 30-dec-2030/2019.2019
 lic: 2(in_use)/99(total) FLOATING license(s) on SERVER 27000@DESKTOP-NPIU9RN
 lic:
 init: end check errors,  cpu clock=  4.43E-01 peak memory=        68 mb
 init: begin setup matrix, pivot=     0 cpu clock=  4.43E-01
       establish matrix -- done,  cpu clock=  4.50E-01 peak memory=        68 mb
       re-order matrix -- done,  cpu clock=  5.04E-01 peak memory=        74 mb
 init: end setup matrix,  cpu clock=  5.16E-01 peak memory=        77 mb
 dcop: begin dcop,  cpu clock=  5.29E-01
 dcop: begin pseudo transient
 dcop: end pseudo transient
 dcop: end dcop,  cpu clock=  1.12E+01 peak memory=        78 mb  tot_iter=    2600
 output: adder_test.mt0
 sweep: tran tran0    begin, stop_t=  2.60E-08 #sweeps=  27 cpu clock=  1.12E+01
 tran: time= 2.9206E-09 tot_iter=    1099 conv_iter=     205 cpu clock= 1.29E+01
 tran: time= 5.4538E-09 tot_iter=    1104 conv_iter=     207 cpu clock= 1.29E+01
 tran: time= 1.0224E-08 tot_iter=    1110 conv_iter=     209 cpu clock= 1.29E+01
 tran: time= 1.4425E-08 tot_iter=    1112 conv_iter=     210 cpu clock= 1.29E+01
 tran: time= 1.9425E-08 tot_iter=    1114 conv_iter=     211 cpu clock= 1.29E+01
 tran: time= 2.4425E-08 tot_iter=    1116 conv_iter=     212 cpu clock= 1.29E+01
 tran: time= 2.6000E-08 tot_iter=    1118 conv_iter=     213 cpu clock= 1.29E+01
 sweep: tran tran0    end,  cpu clock=  1.29E+01 peak memory=        78 mb
>info:         ***** hspice job concluded
 lic: Release hspice token(s)
