***** HSPICE -- J-2014.09-2 64-BIT (Oct 22 2014) win64 ******
 Input File: adder_test.sp
 lic:
 lic: FLEXlm: v10.9.8
 lic: USER:   渣渣基            HOSTNAME: DESKTOP-NPIU9RN
 lic: HOSTID: "f430b9ae4e60 005056c00001 005056c00008 5413792f7072 00ff4a66f477 00ffbbf96e68 00ffd5f
 lic: Using FLEXlm license file:
 lic: 27000@DESKTOP-NPIU9RN
 lic: Checkout 1 hspice
 lic: License/Maintenance for hspice will expire on 30-dec-2030/2019.2019
 lic: 1(in_use)/99(total) FLOATING license(s) on SERVER 27000@DESKTOP-NPIU9RN
 lic:
 init: begin read circuit files,  cpu clock=  5.80E-02
       option search = C:\synopsys\Hspice_J-2014.09-2\parts\behave\
       option search = C:\synopsys\Hspice_J-2014.09-2\parts\behave\
       option search = C:\synopsys\Hspice_J-2014.09-2\parts\AD\
       option search = C:\synopsys\Hspice_J-2014.09-2\parts\XILINX\
       option search = C:\synopsys\Hspice_J-2014.09-2\parts\TLINE\
       option search = C:\synopsys\Hspice_J-2014.09-2\parts\TI\
       option search = C:\synopsys\Hspice_J-2014.09-2\parts\SIGNET\
       option search = C:\synopsys\Hspice_J-2014.09-2\parts\PCI\
       option search = C:\synopsys\Hspice_J-2014.09-2\parts\LIN_TECH\
       option search = C:\synopsys\Hspice_J-2014.09-2\parts\PET\
       option search = C:\synopsys\Hspice_J-2014.09-2\parts\DI0\
       option search = C:\synopsys\Hspice_J-2014.09-2\parts\COMLINE\
       option search = C:\synopsys\Hspice_J-2014.09-2\parts\BURR_BRM\
       option search = C:\synopsys\Hspice_J-2014.09-2\parts\BJT\
       option search = C:\synopsys\Hspice_J-2014.09-2\parts\behave\
       option search = C:\synopsys\Hspice_J-2014.09-2\parts\AD\
       option runlvl
       option acct
       option list
       option post
       option probe
 init: end read circuit files,  cpu clock=  6.30E-02 peak memory=        41 mb
 init: begin check errors,  cpu clock=  6.30E-02
 init: end check errors,  cpu clock=  8.40E-02 peak memory=        44 mb
 init: begin setup matrix, pivot=     0 cpu clock=  8.40E-02
       establish matrix -- done,  cpu clock=  8.50E-02 peak memory=        44 mb
       re-order matrix -- done,  cpu clock=  8.50E-02 peak memory=        44 mb
 init: end setup matrix,  cpu clock=  8.60E-02 peak memory=        44 mb
 dcop: begin dcop,  cpu clock=  8.60E-02
 dcop: end dcop,  cpu clock=  8.80E-02 peak memory=        45 mb  tot_iter=       3
 output: adder_test.tr0
 sweep: tran tran0    begin, stop_t=  2.50E-08 #sweeps=2501 cpu clock=  8.80E-02
 tran: time= 2.5003E-09 tot_iter=      95 conv_iter=      32 cpu clock= 9.40E-02
 tran: time= 5.1535E-09 tot_iter=     276 conv_iter=      95 cpu clock= 1.06E-01
 tran: time= 7.5003E-09 tot_iter=     373 conv_iter=     135 cpu clock= 1.12E-01
 tran: time= 1.0056E-08 tot_iter=     506 conv_iter=     188 cpu clock= 1.21E-01
 tran: time= 1.2500E-08 tot_iter=     696 conv_iter=     251 cpu clock= 1.35E-01
 tran: time= 1.5153E-08 tot_iter=     879 conv_iter=     315 cpu clock= 1.46E-01
 tran: time= 1.7500E-08 tot_iter=     974 conv_iter=     354 cpu clock= 1.53E-01
 tran: time= 2.0056E-08 tot_iter=    1109 conv_iter=     408 cpu clock= 1.61E-01
 tran: time= 2.2876E-08 tot_iter=    1119 conv_iter=     413 cpu clock= 1.63E-01
 tran: time= 2.5000E-08 tot_iter=    1123 conv_iter=     415 cpu clock= 1.63E-01
 sweep: tran tran0    end,  cpu clock=  1.64E-01 peak memory=        45 mb
>info:         ***** hspice job concluded
 lic: Release hspice token(s)
