***** HSPICE -- J-2014.09-2 64-BIT (Oct 22 2014) win64 ******
 Input File: adder_test.sp
 lic:
 lic: FLEXlm: v10.9.8
 lic: USER:   渣渣基            HOSTNAME: DESKTOP-NPIU9RN
 lic: HOSTID: "f430b9ae4e60 005056c00001 005056c00008 5413792f7072 00ff4a66f477 00ffbbf96e68 00ffd5f
 lic: Using FLEXlm license file:
 lic: 27000@DESKTOP-NPIU9RN
 lic: Checkout 1 hspice
 lic: License/Maintenance for hspice will expire on 30-dec-2030/2019.2019
 lic: 1(in_use)/99(total) FLOATING license(s) on SERVER 27000@DESKTOP-NPIU9RN
 lic:
 init: begin read circuit files,  cpu clock=  1.10E-01
       option search = C:\synopsys\Hspice_J-2014.09-2\parts\behave\
       option search = C:\synopsys\Hspice_J-2014.09-2\parts\behave\
       option search = C:\synopsys\Hspice_J-2014.09-2\parts\AD\
       option search = C:\synopsys\Hspice_J-2014.09-2\parts\XILINX\
       option search = C:\synopsys\Hspice_J-2014.09-2\parts\TLINE\
       option search = C:\synopsys\Hspice_J-2014.09-2\parts\TI\
       option search = C:\synopsys\Hspice_J-2014.09-2\parts\SIGNET\
       option search = C:\synopsys\Hspice_J-2014.09-2\parts\PCI\
       option search = C:\synopsys\Hspice_J-2014.09-2\parts\LIN_TECH\
       option search = C:\synopsys\Hspice_J-2014.09-2\parts\PET\
       option search = C:\synopsys\Hspice_J-2014.09-2\parts\DI0\
       option search = C:\synopsys\Hspice_J-2014.09-2\parts\COMLINE\
       option search = C:\synopsys\Hspice_J-2014.09-2\parts\BURR_BRM\
       option search = C:\synopsys\Hspice_J-2014.09-2\parts\BJT\
       option search = C:\synopsys\Hspice_J-2014.09-2\parts\behave\
       option search = C:\synopsys\Hspice_J-2014.09-2\parts\AD\
       option runlvl
       option acct
       option list
       option post
       option probe
 init: end read circuit files,  cpu clock=  1.18E-01 peak memory=        41 mb
 init: begin check errors,  cpu clock=  1.18E-01
 init: end check errors,  cpu clock=  4.59E-01 peak memory=        69 mb
 init: begin setup matrix, pivot=     0 cpu clock=  4.59E-01
       establish matrix -- done,  cpu clock=  4.65E-01 peak memory=        69 mb
       re-order matrix -- done,  cpu clock=  5.40E-01 peak memory=        75 mb
 init: end setup matrix,  cpu clock=  5.53E-01 peak memory=        77 mb
 dcop: begin dcop,  cpu clock=  5.65E-01
 dcop: begin pseudo transient
 dcop: end pseudo transient
 dcop: end dcop,  cpu clock=  2.40E+01 peak memory=        79 mb  tot_iter=    3045
 output: adder_test.mt0
 sweep: tran tran0    begin, stop_t=  2.60E-08 #sweeps=  27 cpu clock=  2.40E+01
 tran: time= 2.6018E-09 tot_iter=    1564 conv_iter=     254 cpu clock= 2.81E+01
 tran: time= 5.2493E-09 tot_iter=    3184 conv_iter=     522 cpu clock= 3.23E+01
 tran: time= 7.8841E-09 tot_iter=    5534 conv_iter=     897 cpu clock= 3.81E+01
 tran: time= 1.0500E-08 tot_iter=    7192 conv_iter=    1174 cpu clock= 4.23E+01
 tran: time= 1.3000E-08 tot_iter=    9338 conv_iter=    1543 cpu clock= 4.76E+01
 tran: time= 1.5600E-08 tot_iter=   11927 conv_iter=    1975 cpu clock= 5.40E+01
 tran: time= 1.8251E-08 tot_iter=   13647 conv_iter=    2264 cpu clock= 5.81E+01
 tran: time= 2.0948E-08 tot_iter=   16139 conv_iter=    2679 cpu clock= 6.43E+01
 tran: time= 2.3500E-08 tot_iter=   17631 conv_iter=    2930 cpu clock= 6.79E+01
 tran: time= 2.6000E-08 tot_iter=   19228 conv_iter=    3183 cpu clock= 7.19E+01
 sweep: tran tran0    end,  cpu clock=  7.19E+01 peak memory=        76 mb
>info:         ***** hspice job concluded
 lic: Release hspice token(s)
