$DATA1 SOURCE='HSPICE' VERSION='J-2014.09-2 64-BIT'
.TITLE '7or'
 tplh             tphl             avg_power        temper          
 alter#          
  2.923e-11        2.419e-11       -5.922e-08         85.0000       
 4               
