$DATA1 SOURCE='HSPICE' VERSION='J-2014.09-2 64-BIT'
.TITLE '7or'
 tplh             tphl             avg_power        temper          
 alter#          
  3.101e-11        2.614e-11       -6.127e-08         85.0000       
 5               
