$DATA1 SOURCE='HSPICE' VERSION='J-2014.09-2 64-BIT'
.TITLE '7or_dynamic'
 tplh             avg_power        avg_clk_power    temper          
 alter#          
  2.469e-11       -5.851e-08       -9.550e-09         85.0000       
 3               
