$DATA1 SOURCE='HSPICE' VERSION='J-2014.09-2 64-BIT'
.TITLE '7or_hier_resize'
 tplh             tphl             avg_power        temper          
 alter#          
  2.841e-11        2.781e-11       -5.775e-08         85.0000       
 8               
