$DATA1 SOURCE='HSPICE' VERSION='J-2014.09-2 64-BIT'
.TITLE '7or_hier_resize'
 tplh             tphl             avg_power        temper          
 alter#          
  2.371e-11        2.369e-11       -5.397e-08         85.0000       
 3               
