$DATA1 SOURCE='HSPICE' VERSION='J-2014.09-2 64-BIT'
.TITLE 'lfsp'
 supply           avg_p_vdd_design avg_p_vdd_clk    temper          
                  alter#          
    0.4000        -2.697e-08       -7.836e-07         35.0000       
                  1               
    0.4500        -3.530e-08       -3.640e-07         35.0000       
                  1               
    0.5000        -4.095e-08       -2.607e-07         35.0000       
                  1               
    0.5500        -4.989e-08       -2.398e-07         35.0000       
                  1               
    0.6000        -5.913e-08       -2.343e-07         35.0000       
                  1               
    0.6500        -6.928e-08       -2.408e-07         35.0000       
                  1               
    0.7000        -8.249e-08       -2.410e-07         35.0000       
                  1               
