 ****** HSPICE -- J-2014.09-2 64-BIT (Oct 22 2014) win64 ******                 
  Copyright (C) 2014 Synopsys, Inc. All Rights Reserved.                        
  Unpublished-rights reserved under US copyright laws.
  This program is protected by law and is subject to the
  terms and conditions of the license agreement from Synopsys.
  Use of this program is your acceptance to be bound by the
  license agreement. HSPICE is the trademark of Synopsys, Inc.
  Input File: lfsr.sp                                                           
  Command line options: -mt 2 -i lfsr.sp -o lfsr.lis
  lic:  
  lic: FLEXlm: v10.9.8 
  lic: USER:   渣渣基            HOSTNAME: DESKTOP-NPIU9RN 
  lic: HOSTID: "f430b9ae4e60 005056c00001 005056c00008 5413792f7072 00ff4a66f477
  00ffbbf96e68 00ffd5f
  lic: Using FLEXlm license file: 
  lic: 27000@DESKTOP-NPIU9RN 
  lic: Checkout 1 hspice 
  lic: License/Maintenance for hspice will expire on 30-dec-2030/2019.2019 
  lic: 1(in_use)/99(total) FLOATING license(s) on SERVER 27000@DESKTOP-NPIU9RN 
  lic:   
 Init: read install configuration file: C:\synopsys\Hspice_J-2014.09-2\meta.cfg
  **warning** (../PTM-MG/modelfiles\../modelfiles/lstp/10nfet.pm:4) Model nfet device geometries will not be checked against the limits set by lmin, lmax, nfinmin and nfinmax. To enable this check, add a period(.) to the model name(i.e. enable model selector).
  **info**  the obsolete option acct is ignored
 scientific notation:
 a=10**-18  f=10**-15  p=10**-12  n=10**-9  u=10**-6
 m=10**-3   k=10**3    x=10**6    g=10**9 
1****** HSPICE -- J-2014.09-2 64-BIT (Oct 22 2014) win64 ******                 
 ******  
 lfsp

 ****** circuit name directory
 circuit number to circuit name directory
   number circuitname                     definition         multiplier
        0 main circuit
        1 xinv_size_4.                    inv_size_4         1.00 
        2 xbuffer_1.                      buffer             1.00 
        3 xbuffer_2_1.                    buffer             1.00 
        4 xbuffer_2_2.                    buffer             1.00 
        5 xbuffer_2_3.                    buffer             1.00 
        6 xbuffer_2_4.                    buffer             1.00 
        7 xff_1.                          scdff              1.00 
        8 xff_2.                          scdff              1.00 
        9 xff_3.                          scdff              1.00 
       10 xff_4.                          scdff              1.00 
       11 xff_5.                          scdff              1.00 
       12 xff_6.                          scdff              1.00 
       13 xff_7.                          scdff              1.00 
       14 xff_8.                          scdff              1.00 
       15 xff_9.                          scdff              1.00 
       16 xff_10.                         scdff              1.00 
       17 xff_11.                         scdff              1.00 
       18 xff_12.                         scdff              1.00 
       19 xff_13.                         scdff              1.00 
       20 xff_14.                         scdff              1.00 
       21 xff_15.                         scdff              1.00 
       22 xff_16.                         scdff              1.00 
       23 xxor_1.                         xor                1.00 
       24 xxor_2.                         xor                1.00 
       25 xxor_3.                         xor                1.00 
       26 xor2.                           or2                1.00 
       27 xinv_size_4.xpfet.              pfet               1.00 
       28 xinv_size_4.xnfet.              nfet               1.00 
       29 xbuffer_1.xinv_size_4_in.       inv_size_4         1.00 
       30 xbuffer_1.xinv_size_1_out_1.    inv_size_1         1.00 
       31 xbuffer_1.xinv_size_1_out_2.    inv_size_1         1.00 
       32 xbuffer_1.xinv_size_1_out_3.    inv_size_1         1.00 
       33 xbuffer_1.xinv_size_1_out_4.    inv_size_1         1.00 
       34 xbuffer_2_1.xinv_size_4_in.     inv_size_4         1.00 
       35 xbuffer_2_1.xinv_size_1_out_1.  inv_size_1         1.00 
       36 xbuffer_2_1.xinv_size_1_out_2.  inv_size_1         1.00 
       37 xbuffer_2_1.xinv_size_1_out_3.  inv_size_1         1.00 
       38 xbuffer_2_1.xinv_size_1_out_4.  inv_size_1         1.00 
       39 xbuffer_2_2.xinv_size_4_in.     inv_size_4         1.00 
       40 xbuffer_2_2.xinv_size_1_out_1.  inv_size_1         1.00 
       41 xbuffer_2_2.xinv_size_1_out_2.  inv_size_1         1.00 
       42 xbuffer_2_2.xinv_size_1_out_3.  inv_size_1         1.00 
       43 xbuffer_2_2.xinv_size_1_out_4.  inv_size_1         1.00 
       44 xbuffer_2_3.xinv_size_4_in.     inv_size_4         1.00 
       45 xbuffer_2_3.xinv_size_1_out_1.  inv_size_1         1.00 
       46 xbuffer_2_3.xinv_size_1_out_2.  inv_size_1         1.00 
       47 xbuffer_2_3.xinv_size_1_out_3.  inv_size_1         1.00 
       48 xbuffer_2_3.xinv_size_1_out_4.  inv_size_1         1.00 
       49 xbuffer_2_4.xinv_size_4_in.     inv_size_4         1.00 
       50 xbuffer_2_4.xinv_size_1_out_1.  inv_size_1         1.00 
       51 xbuffer_2_4.xinv_size_1_out_2.  inv_size_1         1.00 
       52 xbuffer_2_4.xinv_size_1_out_3.  inv_size_1         1.00 
       53 xbuffer_2_4.xinv_size_1_out_4.  inv_size_1         1.00 
       54 xff_1.xinv_1.                   inv_size_1         1.00 
       55 xff_1.xinv_2.                   inv_size_1         1.00 
       56 xff_1.xt_1.                     pfet               1.00 
       57 xff_1.xt_2.                     pfet               1.00 
       58 xff_1.xt_3.                     pfet               1.00 
       59 xff_1.xt_4.                     pfet               1.00 
       60 xff_1.xt_5.                     pfet               1.00 
       61 xff_1.xt_6.                     nfet               1.00 
       62 xff_1.xt_7.                     nfet               1.00 
       63 xff_1.xt_8.                     pfet               1.00 
       64 xff_1.xt_9.                     nfet               1.00 
       65 xff_1.xt_10.                    nfet               1.00 
       66 xff_1.xt_11.                    nfet               1.00 
       67 xff_1.xt_12.                    nfet               1.00 
       68 xff_1.xt_13.                    nfet               1.00 
       69 xff_1.xt_14.                    nfet               1.00 
       70 xff_1.xt_15.                    nfet               1.00 
       71 xff_1.xt_16.                    pfet               1.00 
       72 xff_1.xt_17.                    pfet               1.00 
       73 xff_1.xt_18.                    nfet               1.00 
       74 xff_1.xt_19.                    pfet               1.00 
       75 xff_1.xt_20.                    pfet               1.00 
       76 xff_1.xt_21.                    nfet               1.00 
       77 xff_1.xt_22.                    pfet               1.00 
       78 xff_2.xinv_1.                   inv_size_1         1.00 
       79 xff_2.xinv_2.                   inv_size_1         1.00 
       80 xff_2.xt_1.                     pfet               1.00 
       81 xff_2.xt_2.                     pfet               1.00 
       82 xff_2.xt_3.                     pfet               1.00 
       83 xff_2.xt_4.                     pfet               1.00 
       84 xff_2.xt_5.                     pfet               1.00 
       85 xff_2.xt_6.                     nfet               1.00 
       86 xff_2.xt_7.                     nfet               1.00 
       87 xff_2.xt_8.                     pfet               1.00 
       88 xff_2.xt_9.                     nfet               1.00 
       89 xff_2.xt_10.                    nfet               1.00 
       90 xff_2.xt_11.                    nfet               1.00 
       91 xff_2.xt_12.                    nfet               1.00 
       92 xff_2.xt_13.                    nfet               1.00 
       93 xff_2.xt_14.                    nfet               1.00 
       94 xff_2.xt_15.                    nfet               1.00 
       95 xff_2.xt_16.                    pfet               1.00 
       96 xff_2.xt_17.                    pfet               1.00 
       97 xff_2.xt_18.                    nfet               1.00 
       98 xff_2.xt_19.                    pfet               1.00 
       99 xff_2.xt_20.                    pfet               1.00 
      100 xff_2.xt_21.                    nfet               1.00 
      101 xff_2.xt_22.                    pfet               1.00 
      102 xff_3.xinv_1.                   inv_size_1         1.00 
      103 xff_3.xinv_2.                   inv_size_1         1.00 
      104 xff_3.xt_1.                     pfet               1.00 
      105 xff_3.xt_2.                     pfet               1.00 
      106 xff_3.xt_3.                     pfet               1.00 
      107 xff_3.xt_4.                     pfet               1.00 
      108 xff_3.xt_5.                     pfet               1.00 
      109 xff_3.xt_6.                     nfet               1.00 
      110 xff_3.xt_7.                     nfet               1.00 
      111 xff_3.xt_8.                     pfet               1.00 
      112 xff_3.xt_9.                     nfet               1.00 
      113 xff_3.xt_10.                    nfet               1.00 
      114 xff_3.xt_11.                    nfet               1.00 
      115 xff_3.xt_12.                    nfet               1.00 
      116 xff_3.xt_13.                    nfet               1.00 
      117 xff_3.xt_14.                    nfet               1.00 
      118 xff_3.xt_15.                    nfet               1.00 
      119 xff_3.xt_16.                    pfet               1.00 
      120 xff_3.xt_17.                    pfet               1.00 
      121 xff_3.xt_18.                    nfet               1.00 
      122 xff_3.xt_19.                    pfet               1.00 
      123 xff_3.xt_20.                    pfet               1.00 
      124 xff_3.xt_21.                    nfet               1.00 
      125 xff_3.xt_22.                    pfet               1.00 
      126 xff_4.xinv_1.                   inv_size_1         1.00 
      127 xff_4.xinv_2.                   inv_size_1         1.00 
      128 xff_4.xt_1.                     pfet               1.00 
      129 xff_4.xt_2.                     pfet               1.00 
      130 xff_4.xt_3.                     pfet               1.00 
      131 xff_4.xt_4.                     pfet               1.00 
      132 xff_4.xt_5.                     pfet               1.00 
      133 xff_4.xt_6.                     nfet               1.00 
      134 xff_4.xt_7.                     nfet               1.00 
      135 xff_4.xt_8.                     pfet               1.00 
      136 xff_4.xt_9.                     nfet               1.00 
      137 xff_4.xt_10.                    nfet               1.00 
      138 xff_4.xt_11.                    nfet               1.00 
      139 xff_4.xt_12.                    nfet               1.00 
      140 xff_4.xt_13.                    nfet               1.00 
      141 xff_4.xt_14.                    nfet               1.00 
      142 xff_4.xt_15.                    nfet               1.00 
      143 xff_4.xt_16.                    pfet               1.00 
      144 xff_4.xt_17.                    pfet               1.00 
      145 xff_4.xt_18.                    nfet               1.00 
      146 xff_4.xt_19.                    pfet               1.00 
      147 xff_4.xt_20.                    pfet               1.00 
      148 xff_4.xt_21.                    nfet               1.00 
      149 xff_4.xt_22.                    pfet               1.00 
      150 xff_5.xinv_1.                   inv_size_1         1.00 
      151 xff_5.xinv_2.                   inv_size_1         1.00 
      152 xff_5.xt_1.                     pfet               1.00 
      153 xff_5.xt_2.                     pfet               1.00 
      154 xff_5.xt_3.                     pfet               1.00 
      155 xff_5.xt_4.                     pfet               1.00 
      156 xff_5.xt_5.                     pfet               1.00 
      157 xff_5.xt_6.                     nfet               1.00 
      158 xff_5.xt_7.                     nfet               1.00 
      159 xff_5.xt_8.                     pfet               1.00 
      160 xff_5.xt_9.                     nfet               1.00 
      161 xff_5.xt_10.                    nfet               1.00 
      162 xff_5.xt_11.                    nfet               1.00 
      163 xff_5.xt_12.                    nfet               1.00 
      164 xff_5.xt_13.                    nfet               1.00 
      165 xff_5.xt_14.                    nfet               1.00 
      166 xff_5.xt_15.                    nfet               1.00 
      167 xff_5.xt_16.                    pfet               1.00 
      168 xff_5.xt_17.                    pfet               1.00 
      169 xff_5.xt_18.                    nfet               1.00 
      170 xff_5.xt_19.                    pfet               1.00 
      171 xff_5.xt_20.                    pfet               1.00 
      172 xff_5.xt_21.                    nfet               1.00 
      173 xff_5.xt_22.                    pfet               1.00 
      174 xff_6.xinv_1.                   inv_size_1         1.00 
      175 xff_6.xinv_2.                   inv_size_1         1.00 
      176 xff_6.xt_1.                     pfet               1.00 
      177 xff_6.xt_2.                     pfet               1.00 
      178 xff_6.xt_3.                     pfet               1.00 
      179 xff_6.xt_4.                     pfet               1.00 
      180 xff_6.xt_5.                     pfet               1.00 
      181 xff_6.xt_6.                     nfet               1.00 
      182 xff_6.xt_7.                     nfet               1.00 
      183 xff_6.xt_8.                     pfet               1.00 
      184 xff_6.xt_9.                     nfet               1.00 
      185 xff_6.xt_10.                    nfet               1.00 
      186 xff_6.xt_11.                    nfet               1.00 
      187 xff_6.xt_12.                    nfet               1.00 
      188 xff_6.xt_13.                    nfet               1.00 
      189 xff_6.xt_14.                    nfet               1.00 
      190 xff_6.xt_15.                    nfet               1.00 
      191 xff_6.xt_16.                    pfet               1.00 
      192 xff_6.xt_17.                    pfet               1.00 
      193 xff_6.xt_18.                    nfet               1.00 
      194 xff_6.xt_19.                    pfet               1.00 
      195 xff_6.xt_20.                    pfet               1.00 
      196 xff_6.xt_21.                    nfet               1.00 
      197 xff_6.xt_22.                    pfet               1.00 
      198 xff_7.xinv_1.                   inv_size_1         1.00 
      199 xff_7.xinv_2.                   inv_size_1         1.00 
      200 xff_7.xt_1.                     pfet               1.00 
      201 xff_7.xt_2.                     pfet               1.00 
      202 xff_7.xt_3.                     pfet               1.00 
      203 xff_7.xt_4.                     pfet               1.00 
      204 xff_7.xt_5.                     pfet               1.00 
      205 xff_7.xt_6.                     nfet               1.00 
      206 xff_7.xt_7.                     nfet               1.00 
      207 xff_7.xt_8.                     pfet               1.00 
      208 xff_7.xt_9.                     nfet               1.00 
      209 xff_7.xt_10.                    nfet               1.00 
      210 xff_7.xt_11.                    nfet               1.00 
      211 xff_7.xt_12.                    nfet               1.00 
      212 xff_7.xt_13.                    nfet               1.00 
      213 xff_7.xt_14.                    nfet               1.00 
      214 xff_7.xt_15.                    nfet               1.00 
      215 xff_7.xt_16.                    pfet               1.00 
      216 xff_7.xt_17.                    pfet               1.00 
      217 xff_7.xt_18.                    nfet               1.00 
      218 xff_7.xt_19.                    pfet               1.00 
      219 xff_7.xt_20.                    pfet               1.00 
      220 xff_7.xt_21.                    nfet               1.00 
      221 xff_7.xt_22.                    pfet               1.00 
      222 xff_8.xinv_1.                   inv_size_1         1.00 
      223 xff_8.xinv_2.                   inv_size_1         1.00 
      224 xff_8.xt_1.                     pfet               1.00 
      225 xff_8.xt_2.                     pfet               1.00 
      226 xff_8.xt_3.                     pfet               1.00 
      227 xff_8.xt_4.                     pfet               1.00 
      228 xff_8.xt_5.                     pfet               1.00 
      229 xff_8.xt_6.                     nfet               1.00 
      230 xff_8.xt_7.                     nfet               1.00 
      231 xff_8.xt_8.                     pfet               1.00 
      232 xff_8.xt_9.                     nfet               1.00 
      233 xff_8.xt_10.                    nfet               1.00 
      234 xff_8.xt_11.                    nfet               1.00 
      235 xff_8.xt_12.                    nfet               1.00 
      236 xff_8.xt_13.                    nfet               1.00 
      237 xff_8.xt_14.                    nfet               1.00 
      238 xff_8.xt_15.                    nfet               1.00 
      239 xff_8.xt_16.                    pfet               1.00 
      240 xff_8.xt_17.                    pfet               1.00 
      241 xff_8.xt_18.                    nfet               1.00 
      242 xff_8.xt_19.                    pfet               1.00 
      243 xff_8.xt_20.                    pfet               1.00 
      244 xff_8.xt_21.                    nfet               1.00 
      245 xff_8.xt_22.                    pfet               1.00 
      246 xff_9.xinv_1.                   inv_size_1         1.00 
      247 xff_9.xinv_2.                   inv_size_1         1.00 
      248 xff_9.xt_1.                     pfet               1.00 
      249 xff_9.xt_2.                     pfet               1.00 
      250 xff_9.xt_3.                     pfet               1.00 
      251 xff_9.xt_4.                     pfet               1.00 
      252 xff_9.xt_5.                     pfet               1.00 
      253 xff_9.xt_6.                     nfet               1.00 
      254 xff_9.xt_7.                     nfet               1.00 
      255 xff_9.xt_8.                     pfet               1.00 
      256 xff_9.xt_9.                     nfet               1.00 
      257 xff_9.xt_10.                    nfet               1.00 
      258 xff_9.xt_11.                    nfet               1.00 
      259 xff_9.xt_12.                    nfet               1.00 
      260 xff_9.xt_13.                    nfet               1.00 
      261 xff_9.xt_14.                    nfet               1.00 
      262 xff_9.xt_15.                    nfet               1.00 
      263 xff_9.xt_16.                    pfet               1.00 
      264 xff_9.xt_17.                    pfet               1.00 
      265 xff_9.xt_18.                    nfet               1.00 
      266 xff_9.xt_19.                    pfet               1.00 
      267 xff_9.xt_20.                    pfet               1.00 
      268 xff_9.xt_21.                    nfet               1.00 
      269 xff_9.xt_22.                    pfet               1.00 
      270 xff_10.xinv_1.                  inv_size_1         1.00 
      271 xff_10.xinv_2.                  inv_size_1         1.00 
      272 xff_10.xt_1.                    pfet               1.00 
      273 xff_10.xt_2.                    pfet               1.00 
      274 xff_10.xt_3.                    pfet               1.00 
      275 xff_10.xt_4.                    pfet               1.00 
      276 xff_10.xt_5.                    pfet               1.00 
      277 xff_10.xt_6.                    nfet               1.00 
      278 xff_10.xt_7.                    nfet               1.00 
      279 xff_10.xt_8.                    pfet               1.00 
      280 xff_10.xt_9.                    nfet               1.00 
      281 xff_10.xt_10.                   nfet               1.00 
      282 xff_10.xt_11.                   nfet               1.00 
      283 xff_10.xt_12.                   nfet               1.00 
      284 xff_10.xt_13.                   nfet               1.00 
      285 xff_10.xt_14.                   nfet               1.00 
      286 xff_10.xt_15.                   nfet               1.00 
      287 xff_10.xt_16.                   pfet               1.00 
      288 xff_10.xt_17.                   pfet               1.00 
      289 xff_10.xt_18.                   nfet               1.00 
      290 xff_10.xt_19.                   pfet               1.00 
      291 xff_10.xt_20.                   pfet               1.00 
      292 xff_10.xt_21.                   nfet               1.00 
      293 xff_10.xt_22.                   pfet               1.00 
      294 xff_11.xinv_1.                  inv_size_1         1.00 
      295 xff_11.xinv_2.                  inv_size_1         1.00 
      296 xff_11.xt_1.                    pfet               1.00 
      297 xff_11.xt_2.                    pfet               1.00 
      298 xff_11.xt_3.                    pfet               1.00 
      299 xff_11.xt_4.                    pfet               1.00 
      300 xff_11.xt_5.                    pfet               1.00 
      301 xff_11.xt_6.                    nfet               1.00 
      302 xff_11.xt_7.                    nfet               1.00 
      303 xff_11.xt_8.                    pfet               1.00 
      304 xff_11.xt_9.                    nfet               1.00 
      305 xff_11.xt_10.                   nfet               1.00 
      306 xff_11.xt_11.                   nfet               1.00 
      307 xff_11.xt_12.                   nfet               1.00 
      308 xff_11.xt_13.                   nfet               1.00 
      309 xff_11.xt_14.                   nfet               1.00 
      310 xff_11.xt_15.                   nfet               1.00 
      311 xff_11.xt_16.                   pfet               1.00 
      312 xff_11.xt_17.                   pfet               1.00 
      313 xff_11.xt_18.                   nfet               1.00 
      314 xff_11.xt_19.                   pfet               1.00 
      315 xff_11.xt_20.                   pfet               1.00 
      316 xff_11.xt_21.                   nfet               1.00 
      317 xff_11.xt_22.                   pfet               1.00 
      318 xff_12.xinv_1.                  inv_size_1         1.00 
      319 xff_12.xinv_2.                  inv_size_1         1.00 
      320 xff_12.xt_1.                    pfet               1.00 
      321 xff_12.xt_2.                    pfet               1.00 
      322 xff_12.xt_3.                    pfet               1.00 
      323 xff_12.xt_4.                    pfet               1.00 
      324 xff_12.xt_5.                    pfet               1.00 
      325 xff_12.xt_6.                    nfet               1.00 
      326 xff_12.xt_7.                    nfet               1.00 
      327 xff_12.xt_8.                    pfet               1.00 
      328 xff_12.xt_9.                    nfet               1.00 
      329 xff_12.xt_10.                   nfet               1.00 
      330 xff_12.xt_11.                   nfet               1.00 
      331 xff_12.xt_12.                   nfet               1.00 
      332 xff_12.xt_13.                   nfet               1.00 
      333 xff_12.xt_14.                   nfet               1.00 
      334 xff_12.xt_15.                   nfet               1.00 
      335 xff_12.xt_16.                   pfet               1.00 
      336 xff_12.xt_17.                   pfet               1.00 
      337 xff_12.xt_18.                   nfet               1.00 
      338 xff_12.xt_19.                   pfet               1.00 
      339 xff_12.xt_20.                   pfet               1.00 
      340 xff_12.xt_21.                   nfet               1.00 
      341 xff_12.xt_22.                   pfet               1.00 
      342 xff_13.xinv_1.                  inv_size_1         1.00 
      343 xff_13.xinv_2.                  inv_size_1         1.00 
      344 xff_13.xt_1.                    pfet               1.00 
      345 xff_13.xt_2.                    pfet               1.00 
      346 xff_13.xt_3.                    pfet               1.00 
      347 xff_13.xt_4.                    pfet               1.00 
      348 xff_13.xt_5.                    pfet               1.00 
      349 xff_13.xt_6.                    nfet               1.00 
      350 xff_13.xt_7.                    nfet               1.00 
      351 xff_13.xt_8.                    pfet               1.00 
      352 xff_13.xt_9.                    nfet               1.00 
      353 xff_13.xt_10.                   nfet               1.00 
      354 xff_13.xt_11.                   nfet               1.00 
      355 xff_13.xt_12.                   nfet               1.00 
      356 xff_13.xt_13.                   nfet               1.00 
      357 xff_13.xt_14.                   nfet               1.00 
      358 xff_13.xt_15.                   nfet               1.00 
      359 xff_13.xt_16.                   pfet               1.00 
      360 xff_13.xt_17.                   pfet               1.00 
      361 xff_13.xt_18.                   nfet               1.00 
      362 xff_13.xt_19.                   pfet               1.00 
      363 xff_13.xt_20.                   pfet               1.00 
      364 xff_13.xt_21.                   nfet               1.00 
      365 xff_13.xt_22.                   pfet               1.00 
      366 xff_14.xinv_1.                  inv_size_1         1.00 
      367 xff_14.xinv_2.                  inv_size_1         1.00 
      368 xff_14.xt_1.                    pfet               1.00 
      369 xff_14.xt_2.                    pfet               1.00 
      370 xff_14.xt_3.                    pfet               1.00 
      371 xff_14.xt_4.                    pfet               1.00 
      372 xff_14.xt_5.                    pfet               1.00 
      373 xff_14.xt_6.                    nfet               1.00 
      374 xff_14.xt_7.                    nfet               1.00 
      375 xff_14.xt_8.                    pfet               1.00 
      376 xff_14.xt_9.                    nfet               1.00 
      377 xff_14.xt_10.                   nfet               1.00 
      378 xff_14.xt_11.                   nfet               1.00 
      379 xff_14.xt_12.                   nfet               1.00 
      380 xff_14.xt_13.                   nfet               1.00 
      381 xff_14.xt_14.                   nfet               1.00 
      382 xff_14.xt_15.                   nfet               1.00 
      383 xff_14.xt_16.                   pfet               1.00 
      384 xff_14.xt_17.                   pfet               1.00 
      385 xff_14.xt_18.                   nfet               1.00 
      386 xff_14.xt_19.                   pfet               1.00 
      387 xff_14.xt_20.                   pfet               1.00 
      388 xff_14.xt_21.                   nfet               1.00 
      389 xff_14.xt_22.                   pfet               1.00 
      390 xff_15.xinv_1.                  inv_size_1         1.00 
      391 xff_15.xinv_2.                  inv_size_1         1.00 
      392 xff_15.xt_1.                    pfet               1.00 
      393 xff_15.xt_2.                    pfet               1.00 
      394 xff_15.xt_3.                    pfet               1.00 
      395 xff_15.xt_4.                    pfet               1.00 
      396 xff_15.xt_5.                    pfet               1.00 
      397 xff_15.xt_6.                    nfet               1.00 
      398 xff_15.xt_7.                    nfet               1.00 
      399 xff_15.xt_8.                    pfet               1.00 
      400 xff_15.xt_9.                    nfet               1.00 
      401 xff_15.xt_10.                   nfet               1.00 
      402 xff_15.xt_11.                   nfet               1.00 
      403 xff_15.xt_12.                   nfet               1.00 
      404 xff_15.xt_13.                   nfet               1.00 
      405 xff_15.xt_14.                   nfet               1.00 
      406 xff_15.xt_15.                   nfet               1.00 
      407 xff_15.xt_16.                   pfet               1.00 
      408 xff_15.xt_17.                   pfet               1.00 
      409 xff_15.xt_18.                   nfet               1.00 
      410 xff_15.xt_19.                   pfet               1.00 
      411 xff_15.xt_20.                   pfet               1.00 
      412 xff_15.xt_21.                   nfet               1.00 
      413 xff_15.xt_22.                   pfet               1.00 
      414 xff_16.xinv_1.                  inv_size_1         1.00 
      415 xff_16.xinv_2.                  inv_size_1         1.00 
      416 xff_16.xt_1.                    pfet               1.00 
      417 xff_16.xt_2.                    pfet               1.00 
      418 xff_16.xt_3.                    pfet               1.00 
      419 xff_16.xt_4.                    pfet               1.00 
      420 xff_16.xt_5.                    pfet               1.00 
      421 xff_16.xt_6.                    nfet               1.00 
      422 xff_16.xt_7.                    nfet               1.00 
      423 xff_16.xt_8.                    pfet               1.00 
      424 xff_16.xt_9.                    nfet               1.00 
      425 xff_16.xt_10.                   nfet               1.00 
      426 xff_16.xt_11.                   nfet               1.00 
      427 xff_16.xt_12.                   nfet               1.00 
      428 xff_16.xt_13.                   nfet               1.00 
      429 xff_16.xt_14.                   nfet               1.00 
      430 xff_16.xt_15.                   nfet               1.00 
      431 xff_16.xt_16.                   pfet               1.00 
      432 xff_16.xt_17.                   pfet               1.00 
      433 xff_16.xt_18.                   nfet               1.00 
      434 xff_16.xt_19.                   pfet               1.00 
      435 xff_16.xt_20.                   pfet               1.00 
      436 xff_16.xt_21.                   nfet               1.00 
      437 xff_16.xt_22.                   pfet               1.00 
      438 xxor_1.xpfet_1.                 pfet               1.00 
      439 xxor_1.xpfet_2.                 pfet               1.00 
      440 xxor_1.xnfet_1.                 nfet               1.00 
      441 xxor_1.xnfet_2.                 nfet               1.00 
      442 xxor_1.xpfet_3.                 pfet               1.00 
      443 xxor_1.xpfet_4.                 pfet               1.00 
      444 xxor_1.xpfet_5.                 pfet               1.00 
      445 xxor_1.xnfet_3.                 nfet               1.00 
      446 xxor_1.xnfet_4.                 nfet               1.00 
      447 xxor_1.xnfet_5.                 nfet               1.00 
      448 xxor_2.xpfet_1.                 pfet               1.00 
      449 xxor_2.xpfet_2.                 pfet               1.00 
      450 xxor_2.xnfet_1.                 nfet               1.00 
      451 xxor_2.xnfet_2.                 nfet               1.00 
      452 xxor_2.xpfet_3.                 pfet               1.00 
      453 xxor_2.xpfet_4.                 pfet               1.00 
      454 xxor_2.xpfet_5.                 pfet               1.00 
      455 xxor_2.xnfet_3.                 nfet               1.00 
      456 xxor_2.xnfet_4.                 nfet               1.00 
      457 xxor_2.xnfet_5.                 nfet               1.00 
      458 xxor_3.xpfet_1.                 pfet               1.00 
      459 xxor_3.xpfet_2.                 pfet               1.00 
      460 xxor_3.xnfet_1.                 nfet               1.00 
      461 xxor_3.xnfet_2.                 nfet               1.00 
      462 xxor_3.xpfet_3.                 pfet               1.00 
      463 xxor_3.xpfet_4.                 pfet               1.00 
      464 xxor_3.xpfet_5.                 pfet               1.00 
      465 xxor_3.xnfet_3.                 nfet               1.00 
      466 xxor_3.xnfet_4.                 nfet               1.00 
      467 xxor_3.xnfet_5.                 nfet               1.00 
      468 xor2.xpfet_1.                   pfet               1.00 
      469 xor2.xpfet_2.                   pfet               1.00 
      470 xor2.xnfet_1.                   nfet               1.00 
      471 xor2.xnfet_2.                   nfet               1.00 
      472 xor2.xinv_size_1.               inv_size_1         1.00 
      473 xbuffer_1.xinv_size_4_in.xpfet. pfet               1.00 
      474 xbuffer_1.xinv_size_4_in.xnfet. nfet               1.00 
      475 xbuffer_1.xinv_size_1_out_1.xpfet.
                                            pfet               1.00 
      476 xbuffer_1.xinv_size_1_out_1.xnfet.
                                            nfet               1.00 
      477 xbuffer_1.xinv_size_1_out_2.xpfet.
                                            pfet               1.00 
      478 xbuffer_1.xinv_size_1_out_2.xnfet.
                                            nfet               1.00 
      479 xbuffer_1.xinv_size_1_out_3.xpfet.
                                            pfet               1.00 
      480 xbuffer_1.xinv_size_1_out_3.xnfet.
                                            nfet               1.00 
      481 xbuffer_1.xinv_size_1_out_4.xpfet.
                                            pfet               1.00 
      482 xbuffer_1.xinv_size_1_out_4.xnfet.
                                            nfet               1.00 
      483 xbuffer_2_1.xinv_size_4_in.xpfet.
                                            pfet               1.00 
      484 xbuffer_2_1.xinv_size_4_in.xnfet.
                                            nfet               1.00 
      485 xbuffer_2_1.xinv_size_1_out_1.xpfet.
                                            pfet               1.00 
      486 xbuffer_2_1.xinv_size_1_out_1.xnfet.
                                            nfet               1.00 
      487 xbuffer_2_1.xinv_size_1_out_2.xpfet.
                                            pfet               1.00 
      488 xbuffer_2_1.xinv_size_1_out_2.xnfet.
                                            nfet               1.00 
      489 xbuffer_2_1.xinv_size_1_out_3.xpfet.
                                            pfet               1.00 
      490 xbuffer_2_1.xinv_size_1_out_3.xnfet.
                                            nfet               1.00 
      491 xbuffer_2_1.xinv_size_1_out_4.xpfet.
                                            pfet               1.00 
      492 xbuffer_2_1.xinv_size_1_out_4.xnfet.
                                            nfet               1.00 
      493 xbuffer_2_2.xinv_size_4_in.xpfet.
                                            pfet               1.00 
      494 xbuffer_2_2.xinv_size_4_in.xnfet.
                                            nfet               1.00 
      495 xbuffer_2_2.xinv_size_1_out_1.xpfet.
                                            pfet               1.00 
      496 xbuffer_2_2.xinv_size_1_out_1.xnfet.
                                            nfet               1.00 
      497 xbuffer_2_2.xinv_size_1_out_2.xpfet.
                                            pfet               1.00 
      498 xbuffer_2_2.xinv_size_1_out_2.xnfet.
                                            nfet               1.00 
      499 xbuffer_2_2.xinv_size_1_out_3.xpfet.
                                            pfet               1.00 
      500 xbuffer_2_2.xinv_size_1_out_3.xnfet.
                                            nfet               1.00 
      501 xbuffer_2_2.xinv_size_1_out_4.xpfet.
                                            pfet               1.00 
      502 xbuffer_2_2.xinv_size_1_out_4.xnfet.
                                            nfet               1.00 
      503 xbuffer_2_3.xinv_size_4_in.xpfet.
                                            pfet               1.00 
      504 xbuffer_2_3.xinv_size_4_in.xnfet.
                                            nfet               1.00 
      505 xbuffer_2_3.xinv_size_1_out_1.xpfet.
                                            pfet               1.00 
      506 xbuffer_2_3.xinv_size_1_out_1.xnfet.
                                            nfet               1.00 
      507 xbuffer_2_3.xinv_size_1_out_2.xpfet.
                                            pfet               1.00 
      508 xbuffer_2_3.xinv_size_1_out_2.xnfet.
                                            nfet               1.00 
      509 xbuffer_2_3.xinv_size_1_out_3.xpfet.
                                            pfet               1.00 
      510 xbuffer_2_3.xinv_size_1_out_3.xnfet.
                                            nfet               1.00 
      511 xbuffer_2_3.xinv_size_1_out_4.xpfet.
                                            pfet               1.00 
      512 xbuffer_2_3.xinv_size_1_out_4.xnfet.
                                            nfet               1.00 
      513 xbuffer_2_4.xinv_size_4_in.xpfet.
                                            pfet               1.00 
      514 xbuffer_2_4.xinv_size_4_in.xnfet.
                                            nfet               1.00 
      515 xbuffer_2_4.xinv_size_1_out_1.xpfet.
                                            pfet               1.00 
      516 xbuffer_2_4.xinv_size_1_out_1.xnfet.
                                            nfet               1.00 
      517 xbuffer_2_4.xinv_size_1_out_2.xpfet.
                                            pfet               1.00 
      518 xbuffer_2_4.xinv_size_1_out_2.xnfet.
                                            nfet               1.00 
      519 xbuffer_2_4.xinv_size_1_out_3.xpfet.
                                            pfet               1.00 
      520 xbuffer_2_4.xinv_size_1_out_3.xnfet.
                                            nfet               1.00 
      521 xbuffer_2_4.xinv_size_1_out_4.xpfet.
                                            pfet               1.00 
      522 xbuffer_2_4.xinv_size_1_out_4.xnfet.
                                            nfet               1.00 
      523 xff_1.xinv_1.xpfet.             pfet               1.00 
      524 xff_1.xinv_1.xnfet.             nfet               1.00 
      525 xff_1.xinv_2.xpfet.             pfet               1.00 
      526 xff_1.xinv_2.xnfet.             nfet               1.00 
      527 xff_2.xinv_1.xpfet.             pfet               1.00 
      528 xff_2.xinv_1.xnfet.             nfet               1.00 
      529 xff_2.xinv_2.xpfet.             pfet               1.00 
      530 xff_2.xinv_2.xnfet.             nfet               1.00 
      531 xff_3.xinv_1.xpfet.             pfet               1.00 
      532 xff_3.xinv_1.xnfet.             nfet               1.00 
      533 xff_3.xinv_2.xpfet.             pfet               1.00 
      534 xff_3.xinv_2.xnfet.             nfet               1.00 
      535 xff_4.xinv_1.xpfet.             pfet               1.00 
      536 xff_4.xinv_1.xnfet.             nfet               1.00 
      537 xff_4.xinv_2.xpfet.             pfet               1.00 
      538 xff_4.xinv_2.xnfet.             nfet               1.00 
      539 xff_5.xinv_1.xpfet.             pfet               1.00 
      540 xff_5.xinv_1.xnfet.             nfet               1.00 
      541 xff_5.xinv_2.xpfet.             pfet               1.00 
      542 xff_5.xinv_2.xnfet.             nfet               1.00 
      543 xff_6.xinv_1.xpfet.             pfet               1.00 
      544 xff_6.xinv_1.xnfet.             nfet               1.00 
      545 xff_6.xinv_2.xpfet.             pfet               1.00 
      546 xff_6.xinv_2.xnfet.             nfet               1.00 
      547 xff_7.xinv_1.xpfet.             pfet               1.00 
      548 xff_7.xinv_1.xnfet.             nfet               1.00 
      549 xff_7.xinv_2.xpfet.             pfet               1.00 
      550 xff_7.xinv_2.xnfet.             nfet               1.00 
      551 xff_8.xinv_1.xpfet.             pfet               1.00 
      552 xff_8.xinv_1.xnfet.             nfet               1.00 
      553 xff_8.xinv_2.xpfet.             pfet               1.00 
      554 xff_8.xinv_2.xnfet.             nfet               1.00 
      555 xff_9.xinv_1.xpfet.             pfet               1.00 
      556 xff_9.xinv_1.xnfet.             nfet               1.00 
      557 xff_9.xinv_2.xpfet.             pfet               1.00 
      558 xff_9.xinv_2.xnfet.             nfet               1.00 
      559 xff_10.xinv_1.xpfet.            pfet               1.00 
      560 xff_10.xinv_1.xnfet.            nfet               1.00 
      561 xff_10.xinv_2.xpfet.            pfet               1.00 
      562 xff_10.xinv_2.xnfet.            nfet               1.00 
      563 xff_11.xinv_1.xpfet.            pfet               1.00 
      564 xff_11.xinv_1.xnfet.            nfet               1.00 
      565 xff_11.xinv_2.xpfet.            pfet               1.00 
      566 xff_11.xinv_2.xnfet.            nfet               1.00 
      567 xff_12.xinv_1.xpfet.            pfet               1.00 
      568 xff_12.xinv_1.xnfet.            nfet               1.00 
      569 xff_12.xinv_2.xpfet.            pfet               1.00 
      570 xff_12.xinv_2.xnfet.            nfet               1.00 
      571 xff_13.xinv_1.xpfet.            pfet               1.00 
      572 xff_13.xinv_1.xnfet.            nfet               1.00 
      573 xff_13.xinv_2.xpfet.            pfet               1.00 
      574 xff_13.xinv_2.xnfet.            nfet               1.00 
      575 xff_14.xinv_1.xpfet.            pfet               1.00 
      576 xff_14.xinv_1.xnfet.            nfet               1.00 
      577 xff_14.xinv_2.xpfet.            pfet               1.00 
      578 xff_14.xinv_2.xnfet.            nfet               1.00 
      579 xff_15.xinv_1.xpfet.            pfet               1.00 
      580 xff_15.xinv_1.xnfet.            nfet               1.00 
      581 xff_15.xinv_2.xpfet.            pfet               1.00 
      582 xff_15.xinv_2.xnfet.            nfet               1.00 
      583 xff_16.xinv_1.xpfet.            pfet               1.00 
      584 xff_16.xinv_1.xnfet.            nfet               1.00 
      585 xff_16.xinv_2.xpfet.            pfet               1.00 
      586 xff_16.xinv_2.xnfet.            nfet               1.00 
      587 xor2.xinv_size_1.xpfet.         pfet               1.00 
      588 xor2.xinv_size_1.xnfet.         nfet               1.00 


 circuit parameter definitions
  parameter          =  value 

     0:temp                                                    =  35.0000       
     0:temper@_1                                               =  35.0000       
     0:vdd                                                     = 750.0000m      
     0:vddp                                                    =-750.0000m      
     0:fin_height                                              =  21.0000n      
     0:fin_width                                               =   9.0000n      
     0:lg                                                      =  14.0000n      
     0:supply                                                  = 750.0000m      
     0:period                                                  = 500.0000n      
     0:avg_p_vdd_design                                        =   0.           
     0:avg_p_vdd_clk                                           =   0.           
    27:l                                                       =  14.0000n      
    27:nfin                                                    =   4.0000       
    28:l                                                       =  14.0000n      
    28:nfin                                                    =   4.0000       
    56:l                                                       =  14.0000n      
    56:nfin                                                    =   1.0000       
    57:nfin                                                    =   1.0000       
    58:nfin                                                    =   1.0000       
    59:nfin                                                    =   1.0000       
    60:nfin                                                    =   1.0000       
    61:l                                                       =  14.0000n      
    61:nfin                                                    =   1.0000       
    62:nfin                                                    =   1.0000       
    63:nfin                                                    =   1.0000       
    64:nfin                                                    =   1.0000       
    65:nfin                                                    =   1.0000       
    66:nfin                                                    =   1.0000       
    67:nfin                                                    =   1.0000       
    68:nfin                                                    =   1.0000       
    69:nfin                                                    =   1.0000       
    70:nfin                                                    =   1.0000       
    71:nfin                                                    =   1.0000       
    72:nfin                                                    =   1.0000       
    73:nfin                                                    =   1.0000       
    74:nfin                                                    =   1.0000       
    75:nfin                                                    =   1.0000       
    76:nfin                                                    =   1.0000       
    77:nfin                                                    =   1.0000       
    80:nfin                                                    =   1.0000       
    81:nfin                                                    =   1.0000       
    82:nfin                                                    =   1.0000       
    83:nfin                                                    =   1.0000       
    84:nfin                                                    =   1.0000       
    85:nfin                                                    =   1.0000       
    86:nfin                                                    =   1.0000       
    87:nfin                                                    =   1.0000       
    88:nfin                                                    =   1.0000       
    89:nfin                                                    =   1.0000       
    90:nfin                                                    =   1.0000       
    91:nfin                                                    =   1.0000       
    92:nfin                                                    =   1.0000       
    93:nfin                                                    =   1.0000       
    94:nfin                                                    =   1.0000       
    95:nfin                                                    =   1.0000       
    96:nfin                                                    =   1.0000       
    97:nfin                                                    =   1.0000       
    98:nfin                                                    =   1.0000       
    99:nfin                                                    =   1.0000       
   100:nfin                                                    =   1.0000       
   101:nfin                                                    =   1.0000       
   104:nfin                                                    =   1.0000       
   105:nfin                                                    =   1.0000       
   106:nfin                                                    =   1.0000       
   107:nfin                                                    =   1.0000       
   108:nfin                                                    =   1.0000       
   109:nfin                                                    =   1.0000       
   110:nfin                                                    =   1.0000       
   111:nfin                                                    =   1.0000       
   112:nfin                                                    =   1.0000       
   113:nfin                                                    =   1.0000       
   114:nfin                                                    =   1.0000       
   115:nfin                                                    =   1.0000       
   116:nfin                                                    =   1.0000       
   117:nfin                                                    =   1.0000       
   118:nfin                                                    =   1.0000       
   119:nfin                                                    =   1.0000       
   120:nfin                                                    =   1.0000       
   121:nfin                                                    =   1.0000       
   122:nfin                                                    =   1.0000       
   123:nfin                                                    =   1.0000       
   124:nfin                                                    =   1.0000       
   125:nfin                                                    =   1.0000       
   128:nfin                                                    =   1.0000       
   129:nfin                                                    =   1.0000       
   130:nfin                                                    =   1.0000       
   131:nfin                                                    =   1.0000       
   132:nfin                                                    =   1.0000       
   133:nfin                                                    =   1.0000       
   134:nfin                                                    =   1.0000       
   135:nfin                                                    =   1.0000       
   136:nfin                                                    =   1.0000       
   137:nfin                                                    =   1.0000       
   138:nfin                                                    =   1.0000       
   139:nfin                                                    =   1.0000       
   140:nfin                                                    =   1.0000       
   141:nfin                                                    =   1.0000       
   142:nfin                                                    =   1.0000       
   143:nfin                                                    =   1.0000       
   144:nfin                                                    =   1.0000       
   145:nfin                                                    =   1.0000       
   146:nfin                                                    =   1.0000       
   147:nfin                                                    =   1.0000       
   148:nfin                                                    =   1.0000       
   149:nfin                                                    =   1.0000       
   152:nfin                                                    =   1.0000       
   153:nfin                                                    =   1.0000       
   154:nfin                                                    =   1.0000       
   155:nfin                                                    =   1.0000       
   156:nfin                                                    =   1.0000       
   157:nfin                                                    =   1.0000       
   158:nfin                                                    =   1.0000       
   159:nfin                                                    =   1.0000       
   160:nfin                                                    =   1.0000       
   161:nfin                                                    =   1.0000       
   162:nfin                                                    =   1.0000       
   163:nfin                                                    =   1.0000       
   164:nfin                                                    =   1.0000       
   165:nfin                                                    =   1.0000       
   166:nfin                                                    =   1.0000       
   167:nfin                                                    =   1.0000       
   168:nfin                                                    =   1.0000       
   169:nfin                                                    =   1.0000       
   170:nfin                                                    =   1.0000       
   171:nfin                                                    =   1.0000       
   172:nfin                                                    =   1.0000       
   173:nfin                                                    =   1.0000       
   176:nfin                                                    =   1.0000       
   177:nfin                                                    =   1.0000       
   178:nfin                                                    =   1.0000       
   179:nfin                                                    =   1.0000       
   180:nfin                                                    =   1.0000       
   181:nfin                                                    =   1.0000       
   182:nfin                                                    =   1.0000       
   183:nfin                                                    =   1.0000       
   184:nfin                                                    =   1.0000       
   185:nfin                                                    =   1.0000       
   186:nfin                                                    =   1.0000       
   187:nfin                                                    =   1.0000       
   188:nfin                                                    =   1.0000       
   189:nfin                                                    =   1.0000       
   190:nfin                                                    =   1.0000       
   191:nfin                                                    =   1.0000       
   192:nfin                                                    =   1.0000       
   193:nfin                                                    =   1.0000       
   194:nfin                                                    =   1.0000       
   195:nfin                                                    =   1.0000       
   196:nfin                                                    =   1.0000       
   197:nfin                                                    =   1.0000       
   200:nfin                                                    =   1.0000       
   201:nfin                                                    =   1.0000       
   202:nfin                                                    =   1.0000       
   203:nfin                                                    =   1.0000       
   204:nfin                                                    =   1.0000       
   205:nfin                                                    =   1.0000       
   206:nfin                                                    =   1.0000       
   207:nfin                                                    =   1.0000       
   208:nfin                                                    =   1.0000       
   209:nfin                                                    =   1.0000       
   210:nfin                                                    =   1.0000       
   211:nfin                                                    =   1.0000       
   212:nfin                                                    =   1.0000       
   213:nfin                                                    =   1.0000       
   214:nfin                                                    =   1.0000       
   215:nfin                                                    =   1.0000       
   216:nfin                                                    =   1.0000       
   217:nfin                                                    =   1.0000       
   218:nfin                                                    =   1.0000       
   219:nfin                                                    =   1.0000       
   220:nfin                                                    =   1.0000       
   221:nfin                                                    =   1.0000       
   224:nfin                                                    =   1.0000       
   225:nfin                                                    =   1.0000       
   226:nfin                                                    =   1.0000       
   227:nfin                                                    =   1.0000       
   228:nfin                                                    =   1.0000       
   229:nfin                                                    =   1.0000       
   230:nfin                                                    =   1.0000       
   231:nfin                                                    =   1.0000       
   232:nfin                                                    =   1.0000       
   233:nfin                                                    =   1.0000       
   234:nfin                                                    =   1.0000       
   235:nfin                                                    =   1.0000       
   236:nfin                                                    =   1.0000       
   237:nfin                                                    =   1.0000       
   238:nfin                                                    =   1.0000       
   239:nfin                                                    =   1.0000       
   240:nfin                                                    =   1.0000       
   241:nfin                                                    =   1.0000       
   242:nfin                                                    =   1.0000       
   243:nfin                                                    =   1.0000       
   244:nfin                                                    =   1.0000       
   245:nfin                                                    =   1.0000       
   248:nfin                                                    =   1.0000       
   249:nfin                                                    =   1.0000       
   250:nfin                                                    =   1.0000       
   251:nfin                                                    =   1.0000       
   252:nfin                                                    =   1.0000       
   253:nfin                                                    =   1.0000       
   254:nfin                                                    =   1.0000       
   255:nfin                                                    =   1.0000       
   256:nfin                                                    =   1.0000       
   257:nfin                                                    =   1.0000       
   258:nfin                                                    =   1.0000       
   259:nfin                                                    =   1.0000       
   260:nfin                                                    =   1.0000       
   261:nfin                                                    =   1.0000       
   262:nfin                                                    =   1.0000       
   263:nfin                                                    =   1.0000       
   264:nfin                                                    =   1.0000       
   265:nfin                                                    =   1.0000       
   266:nfin                                                    =   1.0000       
   267:nfin                                                    =   1.0000       
   268:nfin                                                    =   1.0000       
   269:nfin                                                    =   1.0000       
   272:nfin                                                    =   1.0000       
   273:nfin                                                    =   1.0000       
   274:nfin                                                    =   1.0000       
   275:nfin                                                    =   1.0000       
   276:nfin                                                    =   1.0000       
   277:nfin                                                    =   1.0000       
   278:nfin                                                    =   1.0000       
   279:nfin                                                    =   1.0000       
   280:nfin                                                    =   1.0000       
   281:nfin                                                    =   1.0000       
   282:nfin                                                    =   1.0000       
   283:nfin                                                    =   1.0000       
   284:nfin                                                    =   1.0000       
   285:nfin                                                    =   1.0000       
   286:nfin                                                    =   1.0000       
   287:nfin                                                    =   1.0000       
   288:nfin                                                    =   1.0000       
   289:nfin                                                    =   1.0000       
   290:nfin                                                    =   1.0000       
   291:nfin                                                    =   1.0000       
   292:nfin                                                    =   1.0000       
   293:nfin                                                    =   1.0000       
   296:nfin                                                    =   1.0000       
   297:nfin                                                    =   1.0000       
   298:nfin                                                    =   1.0000       
   299:nfin                                                    =   1.0000       
   300:nfin                                                    =   1.0000       
   301:nfin                                                    =   1.0000       
   302:nfin                                                    =   1.0000       
   303:nfin                                                    =   1.0000       
   304:nfin                                                    =   1.0000       
   305:nfin                                                    =   1.0000       
   306:nfin                                                    =   1.0000       
   307:nfin                                                    =   1.0000       
   308:nfin                                                    =   1.0000       
   309:nfin                                                    =   1.0000       
   310:nfin                                                    =   1.0000       
   311:nfin                                                    =   1.0000       
   312:nfin                                                    =   1.0000       
   313:nfin                                                    =   1.0000       
   314:nfin                                                    =   1.0000       
   315:nfin                                                    =   1.0000       
   316:nfin                                                    =   1.0000       
   317:nfin                                                    =   1.0000       
   320:nfin                                                    =   1.0000       
   321:nfin                                                    =   1.0000       
   322:nfin                                                    =   1.0000       
   323:nfin                                                    =   1.0000       
   324:nfin                                                    =   1.0000       
   325:nfin                                                    =   1.0000       
   326:nfin                                                    =   1.0000       
   327:nfin                                                    =   1.0000       
   328:nfin                                                    =   1.0000       
   329:nfin                                                    =   1.0000       
   330:nfin                                                    =   1.0000       
   331:nfin                                                    =   1.0000       
   332:nfin                                                    =   1.0000       
   333:nfin                                                    =   1.0000       
   334:nfin                                                    =   1.0000       
   335:nfin                                                    =   1.0000       
   336:nfin                                                    =   1.0000       
   337:nfin                                                    =   1.0000       
   338:nfin                                                    =   1.0000       
   339:nfin                                                    =   1.0000       
   340:nfin                                                    =   1.0000       
   341:nfin                                                    =   1.0000       
   344:nfin                                                    =   1.0000       
   345:nfin                                                    =   1.0000       
   346:nfin                                                    =   1.0000       
   347:nfin                                                    =   1.0000       
   348:nfin                                                    =   1.0000       
   349:nfin                                                    =   1.0000       
   350:nfin                                                    =   1.0000       
   351:nfin                                                    =   1.0000       
   352:nfin                                                    =   1.0000       
   353:nfin                                                    =   1.0000       
   354:nfin                                                    =   1.0000       
   355:nfin                                                    =   1.0000       
   356:nfin                                                    =   1.0000       
   357:nfin                                                    =   1.0000       
   358:nfin                                                    =   1.0000       
   359:nfin                                                    =   1.0000       
   360:nfin                                                    =   1.0000       
   361:nfin                                                    =   1.0000       
   362:nfin                                                    =   1.0000       
   363:nfin                                                    =   1.0000       
   364:nfin                                                    =   1.0000       
   365:nfin                                                    =   1.0000       
   368:nfin                                                    =   1.0000       
   369:nfin                                                    =   1.0000       
   370:nfin                                                    =   1.0000       
   371:nfin                                                    =   1.0000       
   372:nfin                                                    =   1.0000       
   373:nfin                                                    =   1.0000       
   374:nfin                                                    =   1.0000       
   375:nfin                                                    =   1.0000       
   376:nfin                                                    =   1.0000       
   377:nfin                                                    =   1.0000       
   378:nfin                                                    =   1.0000       
   379:nfin                                                    =   1.0000       
   380:nfin                                                    =   1.0000       
   381:nfin                                                    =   1.0000       
   382:nfin                                                    =   1.0000       
   383:nfin                                                    =   1.0000       
   384:nfin                                                    =   1.0000       
   385:nfin                                                    =   1.0000       
   386:nfin                                                    =   1.0000       
   387:nfin                                                    =   1.0000       
   388:nfin                                                    =   1.0000       
   389:nfin                                                    =   1.0000       
   392:nfin                                                    =   1.0000       
   393:nfin                                                    =   1.0000       
   394:nfin                                                    =   1.0000       
   395:nfin                                                    =   1.0000       
   396:nfin                                                    =   1.0000       
   397:nfin                                                    =   1.0000       
   398:nfin                                                    =   1.0000       
   399:nfin                                                    =   1.0000       
   400:nfin                                                    =   1.0000       
   401:nfin                                                    =   1.0000       
   402:nfin                                                    =   1.0000       
   403:nfin                                                    =   1.0000       
   404:nfin                                                    =   1.0000       
   405:nfin                                                    =   1.0000       
   406:nfin                                                    =   1.0000       
   407:nfin                                                    =   1.0000       
   408:nfin                                                    =   1.0000       
   409:nfin                                                    =   1.0000       
   410:nfin                                                    =   1.0000       
   411:nfin                                                    =   1.0000       
   412:nfin                                                    =   1.0000       
   413:nfin                                                    =   1.0000       
   416:nfin                                                    =   1.0000       
   417:nfin                                                    =   1.0000       
   418:nfin                                                    =   1.0000       
   419:nfin                                                    =   1.0000       
   420:nfin                                                    =   1.0000       
   421:nfin                                                    =   1.0000       
   422:nfin                                                    =   1.0000       
   423:nfin                                                    =   1.0000       
   424:nfin                                                    =   1.0000       
   425:nfin                                                    =   1.0000       
   426:nfin                                                    =   1.0000       
   427:nfin                                                    =   1.0000       
   428:nfin                                                    =   1.0000       
   429:nfin                                                    =   1.0000       
   430:nfin                                                    =   1.0000       
   431:nfin                                                    =   1.0000       
   432:nfin                                                    =   1.0000       
   433:nfin                                                    =   1.0000       
   434:nfin                                                    =   1.0000       
   435:nfin                                                    =   1.0000       
   436:nfin                                                    =   1.0000       
   437:nfin                                                    =   1.0000       
   438:l                                                       =  14.0000n      
   438:nfin                                                    =   1.0000       
   439:nfin                                                    =   1.0000       
   440:l                                                       =  14.0000n      
   440:nfin                                                    =   1.0000       
   441:nfin                                                    =   1.0000       
   442:nfin                                                    =   1.0000       
   443:nfin                                                    =   1.0000       
   444:nfin                                                    =   1.0000       
   445:nfin                                                    =   1.0000       
   446:nfin                                                    =   1.0000       
   447:nfin                                                    =   1.0000       
   448:nfin                                                    =   1.0000       
   449:nfin                                                    =   1.0000       
   450:nfin                                                    =   1.0000       
   451:nfin                                                    =   1.0000       
   452:nfin                                                    =   1.0000       
   453:nfin                                                    =   1.0000       
   454:nfin                                                    =   1.0000       
   455:nfin                                                    =   1.0000       
   456:nfin                                                    =   1.0000       
   457:nfin                                                    =   1.0000       
   458:nfin                                                    =   1.0000       
   459:nfin                                                    =   1.0000       
   460:nfin                                                    =   1.0000       
   461:nfin                                                    =   1.0000       
   462:nfin                                                    =   1.0000       
   463:nfin                                                    =   1.0000       
   464:nfin                                                    =   1.0000       
   465:nfin                                                    =   1.0000       
   466:nfin                                                    =   1.0000       
   467:nfin                                                    =   1.0000       
   468:l                                                       =  14.0000n      
   468:nfin                                                    =   1.0000       
   469:nfin                                                    =   1.0000       
   470:l                                                       =  14.0000n      
   470:nfin                                                    =   1.0000       
   471:nfin                                                    =   1.0000       
   473:l                                                       =  14.0000n      
   473:nfin                                                    =   4.0000       
   474:l                                                       =  14.0000n      
   474:nfin                                                    =   4.0000       
   475:l                                                       =  14.0000n      
   475:nfin                                                    =   1.0000       
   476:l                                                       =  14.0000n      
   476:nfin                                                    =   1.0000       
   477:nfin                                                    =   1.0000       
   478:nfin                                                    =   1.0000       
   479:nfin                                                    =   1.0000       
   480:nfin                                                    =   1.0000       
   481:nfin                                                    =   1.0000       
   482:nfin                                                    =   1.0000       
   483:nfin                                                    =   1.0000       
   484:nfin                                                    =   1.0000       
   485:nfin                                                    =   1.0000       
   486:nfin                                                    =   1.0000       
   487:nfin                                                    =   1.0000       
   488:nfin                                                    =   1.0000       
   489:nfin                                                    =   1.0000       
   490:nfin                                                    =   1.0000       
   491:nfin                                                    =   1.0000       
   492:nfin                                                    =   1.0000       
   493:nfin                                                    =   1.0000       
   494:nfin                                                    =   1.0000       
   495:nfin                                                    =   1.0000       
   496:nfin                                                    =   1.0000       
   497:nfin                                                    =   1.0000       
   498:nfin                                                    =   1.0000       
   499:nfin                                                    =   1.0000       
   500:nfin                                                    =   1.0000       
   501:nfin                                                    =   1.0000       
   502:nfin                                                    =   1.0000       
   503:nfin                                                    =   1.0000       
   504:nfin                                                    =   1.0000       
   505:nfin                                                    =   1.0000       
   506:nfin                                                    =   1.0000       
   507:nfin                                                    =   1.0000       
   508:nfin                                                    =   1.0000       
   509:nfin                                                    =   1.0000       
   510:nfin                                                    =   1.0000       
[...]
      447:mnfet               1.2956k          1.2956k          0.               0.               0.               0.           
      448:mpfet               1.4806k          1.4806k          0.               0.               0.               0.           
      449:mpfet               1.4806k          1.4806k          0.               0.               0.               0.           
      450:mnfet               1.2956k          1.2956k          0.               0.               0.               0.           
      451:mnfet               1.2956k          1.2956k          0.               0.               0.               0.           
      452:mpfet               1.4806k          1.4806k          0.               0.               0.               0.           
      453:mpfet               1.4806k          1.4806k          0.               0.               0.               0.           
      454:mpfet               1.4806k          1.4806k          0.               0.               0.               0.           
      455:mnfet               1.2956k          1.2956k          0.               0.               0.               0.           
      456:mnfet               1.2956k          1.2956k          0.               0.               0.               0.           
      457:mnfet               1.2956k          1.2956k          0.               0.               0.               0.           
      458:mpfet               1.4806k          1.4806k          0.               0.               0.               0.           
      459:mpfet               1.4806k          1.4806k          0.               0.               0.               0.           
      460:mnfet               1.2956k          1.2956k          0.               0.               0.               0.           
      461:mnfet               1.2956k          1.2956k          0.               0.               0.               0.           
      462:mpfet               1.4806k          1.4806k          0.               0.               0.               0.           
      463:mpfet               1.4806k          1.4806k          0.               0.               0.               0.           
      464:mpfet               1.4806k          1.4806k          0.               0.               0.               0.           
      465:mnfet               1.2956k          1.2956k          0.               0.               0.               0.           
      466:mnfet               1.2956k          1.2956k          0.               0.               0.               0.           
      467:mnfet               1.2956k          1.2956k          0.               0.               0.               0.           
      468:mpfet               1.4806k          1.4806k          0.               0.               0.               0.           
      469:mpfet               1.4806k          1.4806k          0.               0.               0.               0.           
      470:mnfet               1.2956k          1.2956k          0.               0.               0.               0.           
      471:mnfet               1.2956k          1.2956k          0.               0.               0.               0.           
      473:mpfet             370.1446         370.1446           0.               0.               0.               0.           
      474:mnfet             323.8942         323.8942           0.               0.               0.               0.           
      475:mpfet               1.4806k          1.4806k          0.               0.               0.               0.           
      476:mnfet               1.2956k          1.2956k          0.               0.               0.               0.           
      477:mpfet               1.4806k          1.4806k          0.               0.               0.               0.           
      478:mnfet               1.2956k          1.2956k          0.               0.               0.               0.           
      479:mpfet               1.4806k          1.4806k          0.               0.               0.               0.           
      480:mnfet               1.2956k          1.2956k          0.               0.               0.               0.           
      481:mpfet               1.4806k          1.4806k          0.               0.               0.               0.           
      482:mnfet               1.2956k          1.2956k          0.               0.               0.               0.           
      483:mpfet             370.1446         370.1446           0.               0.               0.               0.           
      484:mnfet             323.8942         323.8942           0.               0.               0.               0.           
      485:mpfet               1.4806k          1.4806k          0.               0.               0.               0.           
      486:mnfet               1.2956k          1.2956k          0.               0.               0.               0.           
      487:mpfet               1.4806k          1.4806k          0.               0.               0.               0.           
      488:mnfet               1.2956k          1.2956k          0.               0.               0.               0.           
      489:mpfet               1.4806k          1.4806k          0.               0.               0.               0.           
      490:mnfet               1.2956k          1.2956k          0.               0.               0.               0.           
      491:mpfet               1.4806k          1.4806k          0.               0.               0.               0.           
      492:mnfet               1.2956k          1.2956k          0.               0.               0.               0.           
      493:mpfet             370.1446         370.1446           0.               0.               0.               0.           
      494:mnfet             323.8942         323.8942           0.               0.               0.               0.           
      495:mpfet               1.4806k          1.4806k          0.               0.               0.               0.           
      496:mnfet               1.2956k          1.2956k          0.               0.               0.               0.           
      497:mpfet               1.4806k          1.4806k          0.               0.               0.               0.           
      498:mnfet               1.2956k          1.2956k          0.               0.               0.               0.           
      499:mpfet               1.4806k          1.4806k          0.               0.               0.               0.           
      500:mnfet               1.2956k          1.2956k          0.               0.               0.               0.           
      501:mpfet               1.4806k          1.4806k          0.               0.               0.               0.           
      502:mnfet               1.2956k          1.2956k          0.               0.               0.               0.           
      503:mpfet             370.1446         370.1446           0.               0.               0.               0.           
      504:mnfet             323.8942         323.8942           0.               0.               0.               0.           
      505:mpfet               1.4806k          1.4806k          0.               0.               0.               0.           
      506:mnfet               1.2956k          1.2956k          0.               0.               0.               0.           
      507:mpfet               1.4806k          1.4806k          0.               0.               0.               0.           
      508:mnfet               1.2956k          1.2956k          0.               0.               0.               0.           
      509:mpfet               1.4806k          1.4806k          0.               0.               0.               0.           
      510:mnfet               1.2956k          1.2956k          0.               0.               0.               0.           
      511:mpfet               1.4806k          1.4806k          0.               0.               0.               0.           
      512:mnfet               1.2956k          1.2956k          0.               0.               0.               0.           
      513:mpfet             370.1446         370.1446           0.               0.               0.               0.           
      514:mnfet             323.8942         323.8942           0.               0.               0.               0.           
      515:mpfet               1.4806k          1.4806k          0.               0.               0.               0.           
      516:mnfet               1.2956k          1.2956k          0.               0.               0.               0.           
      517:mpfet               1.4806k          1.4806k          0.               0.               0.               0.           
      518:mnfet               1.2956k          1.2956k          0.               0.               0.               0.           
      519:mpfet               1.4806k          1.4806k          0.               0.               0.               0.           
      520:mnfet               1.2956k          1.2956k          0.               0.               0.               0.           
      521:mpfet               1.4806k          1.4806k          0.               0.               0.               0.           
      522:mnfet               1.2956k          1.2956k          0.               0.               0.               0.           
      523:mpfet               1.4806k          1.4806k          0.               0.               0.               0.           
      524:mnfet               1.2956k          1.2956k          0.               0.               0.               0.           
      525:mpfet               1.4806k          1.4806k          0.               0.               0.               0.           
      526:mnfet               1.2956k          1.2956k          0.               0.               0.               0.           
      527:mpfet               1.4806k          1.4806k          0.               0.               0.               0.           
      528:mnfet               1.2956k          1.2956k          0.               0.               0.               0.           
      529:mpfet               1.4806k          1.4806k          0.               0.               0.               0.           
      530:mnfet               1.2956k          1.2956k          0.               0.               0.               0.           
      531:mpfet               1.4806k          1.4806k          0.               0.               0.               0.           
      532:mnfet               1.2956k          1.2956k          0.               0.               0.               0.           
      533:mpfet               1.4806k          1.4806k          0.               0.               0.               0.           
      534:mnfet               1.2956k          1.2956k          0.               0.               0.               0.           
      535:mpfet               1.4806k          1.4806k          0.               0.               0.               0.           
      536:mnfet               1.2956k          1.2956k          0.               0.               0.               0.           
      537:mpfet               1.4806k          1.4806k          0.               0.               0.               0.           
      538:mnfet               1.2956k          1.2956k          0.               0.               0.               0.           
      539:mpfet               1.4806k          1.4806k          0.               0.               0.               0.           
      540:mnfet               1.2956k          1.2956k          0.               0.               0.               0.           
      541:mpfet               1.4806k          1.4806k          0.               0.               0.               0.           
      542:mnfet               1.2956k          1.2956k          0.               0.               0.               0.           
      543:mpfet               1.4806k          1.4806k          0.               0.               0.               0.           
      544:mnfet               1.2956k          1.2956k          0.               0.               0.               0.           
      545:mpfet               1.4806k          1.4806k          0.               0.               0.               0.           
      546:mnfet               1.2956k          1.2956k          0.               0.               0.               0.           
      547:mpfet               1.4806k          1.4806k          0.               0.               0.               0.           
      548:mnfet               1.2956k          1.2956k          0.               0.               0.               0.           
      549:mpfet               1.4806k          1.4806k          0.               0.               0.               0.           
      550:mnfet               1.2956k          1.2956k          0.               0.               0.               0.           
      551:mpfet               1.4806k          1.4806k          0.               0.               0.               0.           
      552:mnfet               1.2956k          1.2956k          0.               0.               0.               0.           
      553:mpfet               1.4806k          1.4806k          0.               0.               0.               0.           
      554:mnfet               1.2956k          1.2956k          0.               0.               0.               0.           
      555:mpfet               1.4806k          1.4806k          0.               0.               0.               0.           
      556:mnfet               1.2956k          1.2956k          0.               0.               0.               0.           
      557:mpfet               1.4806k          1.4806k          0.               0.               0.               0.           
      558:mnfet               1.2956k          1.2956k          0.               0.               0.               0.           
      559:mpfet               1.4806k          1.4806k          0.               0.               0.               0.           
      560:mnfet               1.2956k          1.2956k          0.               0.               0.               0.           
      561:mpfet               1.4806k          1.4806k          0.               0.               0.               0.           
      562:mnfet               1.2956k          1.2956k          0.               0.               0.               0.           
      563:mpfet               1.4806k          1.4806k          0.               0.               0.               0.           
      564:mnfet               1.2956k          1.2956k          0.               0.               0.               0.           
      565:mpfet               1.4806k          1.4806k          0.               0.               0.               0.           
      566:mnfet               1.2956k          1.2956k          0.               0.               0.               0.           
      567:mpfet               1.4806k          1.4806k          0.               0.               0.               0.           
      568:mnfet               1.2956k          1.2956k          0.               0.               0.               0.           
      569:mpfet               1.4806k          1.4806k          0.               0.               0.               0.           
      570:mnfet               1.2956k          1.2956k          0.               0.               0.               0.           
      571:mpfet               1.4806k          1.4806k          0.               0.               0.               0.           
      572:mnfet               1.2956k          1.2956k          0.               0.               0.               0.           
      573:mpfet               1.4806k          1.4806k          0.               0.               0.               0.           
      574:mnfet               1.2956k          1.2956k          0.               0.               0.               0.           
      575:mpfet               1.4806k          1.4806k          0.               0.               0.               0.           
      576:mnfet               1.2956k          1.2956k          0.               0.               0.               0.           
      577:mpfet               1.4806k          1.4806k          0.               0.               0.               0.           
      578:mnfet               1.2956k          1.2956k          0.               0.               0.               0.           
      579:mpfet               1.4806k          1.4806k          0.               0.               0.               0.           
      580:mnfet               1.2956k          1.2956k          0.               0.               0.               0.           
      581:mpfet               1.4806k          1.4806k          0.               0.               0.               0.           
      582:mnfet               1.2956k          1.2956k          0.               0.               0.               0.           
      583:mpfet               1.4806k          1.4806k          0.               0.               0.               0.           
      584:mnfet               1.2956k          1.2956k          0.               0.               0.               0.           
      585:mpfet               1.4806k          1.4806k          0.               0.               0.               0.           
      586:mnfet               1.2956k          1.2956k          0.               0.               0.               0.           
      587:mpfet               1.4806k          1.4806k          0.               0.               0.               0.           
      588:mnfet               1.2956k          1.2956k          0.               0.               0.               0.           

          ***** job concluded
1****** HSPICE -- J-2014.09-2 64-BIT (Oct 22 2014) win64 ******                 
 ******  
 lfsp

 ****** job statistics summary tnom=  25.000 temp=  35.000 ******

  ******  HSPICE Threads Information  ******

  Command Line Threads Count :     2
  Available CPU Count        :     4
  Actual Threads Count       :     2


  ******  Circuit Statistics  ******
  # nodes       =    1283 # elements   =     510
  # resistors   =       0 # capacitors =       0 # inductors   =       0
  # mutual_inds =       0 # vccs       =       0 # vcvs        =       0
  # cccs        =       0 # ccvs       =       0 # volt_srcs   =       6
  # curr_srcs   =       0 # diodes     =       0 # bjts        =       0
  # jfets       =       0 # mosfets    =     504 # U elements  =       0
  # T elements  =       0 # W elements =       0 # B elements  =       0
  # S elements  =       0 # P elements =       0 # va device   =       0
  # vector_srcs =       0 # N elements =       0


  ******  Runtime Statistics (seconds)  ******

  analysis           time    # points   tot. iter  conv.iter
  op point          23.19           1       10661
  transient        109.75        3507       89667       20664 rev=       574
  readin             0.03
  errchk             0.12
  setup              0.01
  output             0.00


           peak memory used         54.67 megabytes
           total cpu time          133.10 seconds
           total elapsed time      133.15 seconds
           job started at     17:24:56 05/21/2022
           job ended   at     17:27:09 05/21/2022


  lic: Release hspice token(s) 
 lic: total license checkout elapse time:        0.05(s)
