 ****** HSPICE -- J-2014.09-2 64-BIT (Oct 22 2014) win64 ******                 
  Copyright (C) 2014 Synopsys, Inc. All Rights Reserved.                        
  Unpublished-rights reserved under US copyright laws.
  This program is protected by law and is subject to the
  terms and conditions of the license agreement from Synopsys.
  Use of this program is your acceptance to be bound by the
  license agreement. HSPICE is the trademark of Synopsys, Inc.
  Input File: lfsr.sp                                                           
  Command line options: -mt 2 -i lfsr.sp -o lfsr.lis
  lic:  
  lic: FLEXlm: v10.9.8 
  lic: USER:   渣渣基            HOSTNAME: DESKTOP-NPIU9RN 
  lic: HOSTID: "f430b9ae4e60 005056c00001 005056c00008 5413792f7072 00ff4a66f477
  00ffbbf96e68 00ffd5f
  lic: Using FLEXlm license file: 
  lic: 27000@DESKTOP-NPIU9RN 
  lic: Checkout 1 hspice 
  lic: License/Maintenance for hspice will expire on 30-dec-2030/2019.2019 
  lic: 1(in_use)/99(total) FLOATING license(s) on SERVER 27000@DESKTOP-NPIU9RN 
  lic:   
 Init: read install configuration file: C:\synopsys\Hspice_J-2014.09-2\meta.cfg
  **warning** (../PTM-MG/modelfiles\../modelfiles/lstp/10nfet.pm:4) Model nfet device geometries will not be checked against the limits set by lmin, lmax, nfinmin and nfinmax. To enable this check, add a period(.) to the model name(i.e. enable model selector).
  **info**  the obsolete option acct is ignored
 scientific notation:
 a=10**-18  f=10**-15  p=10**-12  n=10**-9  u=10**-6
 m=10**-3   k=10**3    x=10**6    g=10**9 
1****** HSPICE -- J-2014.09-2 64-BIT (Oct 22 2014) win64 ******                 
 ******  
 lfsp

 ****** circuit name directory
 circuit number to circuit name directory
   number circuitname                     definition         multiplier
        0 main circuit
        1 xinv_size_4.                    inv_size_4         1.00 
        2 xbuffer_1.                      buffer             1.00 
        3 xbuffer_2_1.                    buffer             1.00 
        4 xbuffer_2_2.                    buffer             1.00 
        5 xbuffer_2_3.                    buffer             1.00 
        6 xbuffer_2_4.                    buffer             1.00 
        7 xff_1.                          tspc               1.00 
        8 xff_2.                          tspc               1.00 
        9 xff_3.                          tspc               1.00 
       10 xff_4.                          tspc               1.00 
       11 xff_5.                          tspc               1.00 
       12 xff_6.                          tspc               1.00 
       13 xff_7.                          tspc               1.00 
       14 xff_8.                          tspc               1.00 
       15 xff_9.                          tspc               1.00 
       16 xff_10.                         tspc               1.00 
       17 xff_11.                         tspc               1.00 
       18 xff_12.                         tspc               1.00 
       19 xff_13.                         tspc               1.00 
       20 xff_14.                         tspc               1.00 
       21 xff_15.                         tspc               1.00 
       22 xff_16.                         tspc               1.00 
       23 xxor_1.                         xor                1.00 
       24 xxor_2.                         xor                1.00 
       25 xxor_3.                         xor                1.00 
       26 xor2.                           or2                1.00 
       27 xinv_size_4.xpfet.              pfet               1.00 
       28 xinv_size_4.xnfet.              nfet               1.00 
       29 xbuffer_1.xinv_size_4_in.       inv_size_4         1.00 
       30 xbuffer_1.xinv_size_1_out_1.    inv_size_1         1.00 
       31 xbuffer_1.xinv_size_1_out_2.    inv_size_1         1.00 
       32 xbuffer_1.xinv_size_1_out_3.    inv_size_1         1.00 
       33 xbuffer_1.xinv_size_1_out_4.    inv_size_1         1.00 
       34 xbuffer_2_1.xinv_size_4_in.     inv_size_4         1.00 
       35 xbuffer_2_1.xinv_size_1_out_1.  inv_size_1         1.00 
       36 xbuffer_2_1.xinv_size_1_out_2.  inv_size_1         1.00 
       37 xbuffer_2_1.xinv_size_1_out_3.  inv_size_1         1.00 
       38 xbuffer_2_1.xinv_size_1_out_4.  inv_size_1         1.00 
       39 xbuffer_2_2.xinv_size_4_in.     inv_size_4         1.00 
       40 xbuffer_2_2.xinv_size_1_out_1.  inv_size_1         1.00 
       41 xbuffer_2_2.xinv_size_1_out_2.  inv_size_1         1.00 
       42 xbuffer_2_2.xinv_size_1_out_3.  inv_size_1         1.00 
       43 xbuffer_2_2.xinv_size_1_out_4.  inv_size_1         1.00 
       44 xbuffer_2_3.xinv_size_4_in.     inv_size_4         1.00 
       45 xbuffer_2_3.xinv_size_1_out_1.  inv_size_1         1.00 
       46 xbuffer_2_3.xinv_size_1_out_2.  inv_size_1         1.00 
       47 xbuffer_2_3.xinv_size_1_out_3.  inv_size_1         1.00 
       48 xbuffer_2_3.xinv_size_1_out_4.  inv_size_1         1.00 
       49 xbuffer_2_4.xinv_size_4_in.     inv_size_4         1.00 
       50 xbuffer_2_4.xinv_size_1_out_1.  inv_size_1         1.00 
       51 xbuffer_2_4.xinv_size_1_out_2.  inv_size_1         1.00 
       52 xbuffer_2_4.xinv_size_1_out_3.  inv_size_1         1.00 
       53 xbuffer_2_4.xinv_size_1_out_4.  inv_size_1         1.00 
       54 xff_1.xm_1.                     pfet               1.00 
       55 xff_1.xm_2.                     pfet               1.00 
       56 xff_1.xm_3.                     pfet               1.00 
       57 xff_1.xm_4.                     nfet               1.00 
       58 xff_1.xm_5.                     nfet               1.00 
       59 xff_1.xm_6.                     pfet               1.00 
       60 xff_1.xm_7.                     pfet               1.00 
       61 xff_1.xm_8.                     pfet               1.00 
       62 xff_1.xm_9.                     nfet               1.00 
       63 xff_1.xm_10.                    nfet               1.00 
       64 xff_1.xm_11.                    pfet               1.00 
       65 xff_1.xm_12.                    pfet               1.00 
       66 xff_1.xm_13.                    nfet               1.00 
       67 xff_1.xm_14.                    nfet               1.00 
       68 xff_1.xm_15.                    nfet               1.00 
       69 xff_1.xm_16.                    nfet               1.00 
       70 xff_1.xm_17.                    nfet               1.00 
       71 xff_1.xm_18.                    nfet               1.00 
       72 xff_1.xm_19.                    pfet               1.00 
       73 xff_1.xm_20.                    pfet               1.00 
       74 xff_1.xinv_1.                   inv_size_1         1.00 
       75 xff_1.xinv_2.                   inv_size_1         1.00 
       76 xff_1.xinv_3.                   inv_size_1         1.00 
       77 xff_2.xm_1.                     pfet               1.00 
       78 xff_2.xm_2.                     pfet               1.00 
       79 xff_2.xm_3.                     pfet               1.00 
       80 xff_2.xm_4.                     nfet               1.00 
       81 xff_2.xm_5.                     nfet               1.00 
       82 xff_2.xm_6.                     pfet               1.00 
       83 xff_2.xm_7.                     pfet               1.00 
       84 xff_2.xm_8.                     pfet               1.00 
       85 xff_2.xm_9.                     nfet               1.00 
       86 xff_2.xm_10.                    nfet               1.00 
       87 xff_2.xm_11.                    pfet               1.00 
       88 xff_2.xm_12.                    pfet               1.00 
       89 xff_2.xm_13.                    nfet               1.00 
       90 xff_2.xm_14.                    nfet               1.00 
       91 xff_2.xm_15.                    nfet               1.00 
       92 xff_2.xm_16.                    nfet               1.00 
       93 xff_2.xm_17.                    nfet               1.00 
       94 xff_2.xm_18.                    nfet               1.00 
       95 xff_2.xm_19.                    pfet               1.00 
       96 xff_2.xm_20.                    pfet               1.00 
       97 xff_2.xinv_1.                   inv_size_1         1.00 
       98 xff_2.xinv_2.                   inv_size_1         1.00 
       99 xff_2.xinv_3.                   inv_size_1         1.00 
      100 xff_3.xm_1.                     pfet               1.00 
      101 xff_3.xm_2.                     pfet               1.00 
      102 xff_3.xm_3.                     pfet               1.00 
      103 xff_3.xm_4.                     nfet               1.00 
      104 xff_3.xm_5.                     nfet               1.00 
      105 xff_3.xm_6.                     pfet               1.00 
      106 xff_3.xm_7.                     pfet               1.00 
      107 xff_3.xm_8.                     pfet               1.00 
      108 xff_3.xm_9.                     nfet               1.00 
      109 xff_3.xm_10.                    nfet               1.00 
      110 xff_3.xm_11.                    pfet               1.00 
      111 xff_3.xm_12.                    pfet               1.00 
      112 xff_3.xm_13.                    nfet               1.00 
      113 xff_3.xm_14.                    nfet               1.00 
      114 xff_3.xm_15.                    nfet               1.00 
      115 xff_3.xm_16.                    nfet               1.00 
      116 xff_3.xm_17.                    nfet               1.00 
      117 xff_3.xm_18.                    nfet               1.00 
      118 xff_3.xm_19.                    pfet               1.00 
      119 xff_3.xm_20.                    pfet               1.00 
      120 xff_3.xinv_1.                   inv_size_1         1.00 
      121 xff_3.xinv_2.                   inv_size_1         1.00 
      122 xff_3.xinv_3.                   inv_size_1         1.00 
      123 xff_4.xm_1.                     pfet               1.00 
      124 xff_4.xm_2.                     pfet               1.00 
      125 xff_4.xm_3.                     pfet               1.00 
      126 xff_4.xm_4.                     nfet               1.00 
      127 xff_4.xm_5.                     nfet               1.00 
      128 xff_4.xm_6.                     pfet               1.00 
      129 xff_4.xm_7.                     pfet               1.00 
      130 xff_4.xm_8.                     pfet               1.00 
      131 xff_4.xm_9.                     nfet               1.00 
      132 xff_4.xm_10.                    nfet               1.00 
      133 xff_4.xm_11.                    pfet               1.00 
      134 xff_4.xm_12.                    pfet               1.00 
      135 xff_4.xm_13.                    nfet               1.00 
      136 xff_4.xm_14.                    nfet               1.00 
      137 xff_4.xm_15.                    nfet               1.00 
      138 xff_4.xm_16.                    nfet               1.00 
      139 xff_4.xm_17.                    nfet               1.00 
      140 xff_4.xm_18.                    nfet               1.00 
      141 xff_4.xm_19.                    pfet               1.00 
      142 xff_4.xm_20.                    pfet               1.00 
      143 xff_4.xinv_1.                   inv_size_1         1.00 
      144 xff_4.xinv_2.                   inv_size_1         1.00 
      145 xff_4.xinv_3.                   inv_size_1         1.00 
      146 xff_5.xm_1.                     pfet               1.00 
      147 xff_5.xm_2.                     pfet               1.00 
      148 xff_5.xm_3.                     pfet               1.00 
      149 xff_5.xm_4.                     nfet               1.00 
      150 xff_5.xm_5.                     nfet               1.00 
      151 xff_5.xm_6.                     pfet               1.00 
      152 xff_5.xm_7.                     pfet               1.00 
      153 xff_5.xm_8.                     pfet               1.00 
      154 xff_5.xm_9.                     nfet               1.00 
      155 xff_5.xm_10.                    nfet               1.00 
      156 xff_5.xm_11.                    pfet               1.00 
      157 xff_5.xm_12.                    pfet               1.00 
      158 xff_5.xm_13.                    nfet               1.00 
      159 xff_5.xm_14.                    nfet               1.00 
      160 xff_5.xm_15.                    nfet               1.00 
      161 xff_5.xm_16.                    nfet               1.00 
      162 xff_5.xm_17.                    nfet               1.00 
      163 xff_5.xm_18.                    nfet               1.00 
      164 xff_5.xm_19.                    pfet               1.00 
      165 xff_5.xm_20.                    pfet               1.00 
      166 xff_5.xinv_1.                   inv_size_1         1.00 
      167 xff_5.xinv_2.                   inv_size_1         1.00 
      168 xff_5.xinv_3.                   inv_size_1         1.00 
      169 xff_6.xm_1.                     pfet               1.00 
      170 xff_6.xm_2.                     pfet               1.00 
      171 xff_6.xm_3.                     pfet               1.00 
      172 xff_6.xm_4.                     nfet               1.00 
      173 xff_6.xm_5.                     nfet               1.00 
      174 xff_6.xm_6.                     pfet               1.00 
      175 xff_6.xm_7.                     pfet               1.00 
      176 xff_6.xm_8.                     pfet               1.00 
      177 xff_6.xm_9.                     nfet               1.00 
      178 xff_6.xm_10.                    nfet               1.00 
      179 xff_6.xm_11.                    pfet               1.00 
      180 xff_6.xm_12.                    pfet               1.00 
      181 xff_6.xm_13.                    nfet               1.00 
      182 xff_6.xm_14.                    nfet               1.00 
      183 xff_6.xm_15.                    nfet               1.00 
      184 xff_6.xm_16.                    nfet               1.00 
      185 xff_6.xm_17.                    nfet               1.00 
      186 xff_6.xm_18.                    nfet               1.00 
      187 xff_6.xm_19.                    pfet               1.00 
      188 xff_6.xm_20.                    pfet               1.00 
      189 xff_6.xinv_1.                   inv_size_1         1.00 
      190 xff_6.xinv_2.                   inv_size_1         1.00 
      191 xff_6.xinv_3.                   inv_size_1         1.00 
      192 xff_7.xm_1.                     pfet               1.00 
      193 xff_7.xm_2.                     pfet               1.00 
      194 xff_7.xm_3.                     pfet               1.00 
      195 xff_7.xm_4.                     nfet               1.00 
      196 xff_7.xm_5.                     nfet               1.00 
      197 xff_7.xm_6.                     pfet               1.00 
      198 xff_7.xm_7.                     pfet               1.00 
      199 xff_7.xm_8.                     pfet               1.00 
      200 xff_7.xm_9.                     nfet               1.00 
      201 xff_7.xm_10.                    nfet               1.00 
      202 xff_7.xm_11.                    pfet               1.00 
      203 xff_7.xm_12.                    pfet               1.00 
      204 xff_7.xm_13.                    nfet               1.00 
      205 xff_7.xm_14.                    nfet               1.00 
      206 xff_7.xm_15.                    nfet               1.00 
      207 xff_7.xm_16.                    nfet               1.00 
      208 xff_7.xm_17.                    nfet               1.00 
      209 xff_7.xm_18.                    nfet               1.00 
      210 xff_7.xm_19.                    pfet               1.00 
      211 xff_7.xm_20.                    pfet               1.00 
      212 xff_7.xinv_1.                   inv_size_1         1.00 
      213 xff_7.xinv_2.                   inv_size_1         1.00 
      214 xff_7.xinv_3.                   inv_size_1         1.00 
      215 xff_8.xm_1.                     pfet               1.00 
      216 xff_8.xm_2.                     pfet               1.00 
      217 xff_8.xm_3.                     pfet               1.00 
      218 xff_8.xm_4.                     nfet               1.00 
      219 xff_8.xm_5.                     nfet               1.00 
      220 xff_8.xm_6.                     pfet               1.00 
      221 xff_8.xm_7.                     pfet               1.00 
      222 xff_8.xm_8.                     pfet               1.00 
      223 xff_8.xm_9.                     nfet               1.00 
      224 xff_8.xm_10.                    nfet               1.00 
      225 xff_8.xm_11.                    pfet               1.00 
      226 xff_8.xm_12.                    pfet               1.00 
      227 xff_8.xm_13.                    nfet               1.00 
      228 xff_8.xm_14.                    nfet               1.00 
      229 xff_8.xm_15.                    nfet               1.00 
      230 xff_8.xm_16.                    nfet               1.00 
      231 xff_8.xm_17.                    nfet               1.00 
      232 xff_8.xm_18.                    nfet               1.00 
      233 xff_8.xm_19.                    pfet               1.00 
      234 xff_8.xm_20.                    pfet               1.00 
      235 xff_8.xinv_1.                   inv_size_1         1.00 
      236 xff_8.xinv_2.                   inv_size_1         1.00 
      237 xff_8.xinv_3.                   inv_size_1         1.00 
      238 xff_9.xm_1.                     pfet               1.00 
      239 xff_9.xm_2.                     pfet               1.00 
      240 xff_9.xm_3.                     pfet               1.00 
      241 xff_9.xm_4.                     nfet               1.00 
      242 xff_9.xm_5.                     nfet               1.00 
      243 xff_9.xm_6.                     pfet               1.00 
      244 xff_9.xm_7.                     pfet               1.00 
      245 xff_9.xm_8.                     pfet               1.00 
      246 xff_9.xm_9.                     nfet               1.00 
      247 xff_9.xm_10.                    nfet               1.00 
      248 xff_9.xm_11.                    pfet               1.00 
      249 xff_9.xm_12.                    pfet               1.00 
      250 xff_9.xm_13.                    nfet               1.00 
      251 xff_9.xm_14.                    nfet               1.00 
      252 xff_9.xm_15.                    nfet               1.00 
      253 xff_9.xm_16.                    nfet               1.00 
      254 xff_9.xm_17.                    nfet               1.00 
      255 xff_9.xm_18.                    nfet               1.00 
      256 xff_9.xm_19.                    pfet               1.00 
      257 xff_9.xm_20.                    pfet               1.00 
      258 xff_9.xinv_1.                   inv_size_1         1.00 
      259 xff_9.xinv_2.                   inv_size_1         1.00 
      260 xff_9.xinv_3.                   inv_size_1         1.00 
      261 xff_10.xm_1.                    pfet               1.00 
      262 xff_10.xm_2.                    pfet               1.00 
      263 xff_10.xm_3.                    pfet               1.00 
      264 xff_10.xm_4.                    nfet               1.00 
      265 xff_10.xm_5.                    nfet               1.00 
      266 xff_10.xm_6.                    pfet               1.00 
      267 xff_10.xm_7.                    pfet               1.00 
      268 xff_10.xm_8.                    pfet               1.00 
      269 xff_10.xm_9.                    nfet               1.00 
      270 xff_10.xm_10.                   nfet               1.00 
      271 xff_10.xm_11.                   pfet               1.00 
      272 xff_10.xm_12.                   pfet               1.00 
      273 xff_10.xm_13.                   nfet               1.00 
      274 xff_10.xm_14.                   nfet               1.00 
      275 xff_10.xm_15.                   nfet               1.00 
      276 xff_10.xm_16.                   nfet               1.00 
      277 xff_10.xm_17.                   nfet               1.00 
      278 xff_10.xm_18.                   nfet               1.00 
      279 xff_10.xm_19.                   pfet               1.00 
      280 xff_10.xm_20.                   pfet               1.00 
      281 xff_10.xinv_1.                  inv_size_1         1.00 
      282 xff_10.xinv_2.                  inv_size_1         1.00 
      283 xff_10.xinv_3.                  inv_size_1         1.00 
      284 xff_11.xm_1.                    pfet               1.00 
      285 xff_11.xm_2.                    pfet               1.00 
      286 xff_11.xm_3.                    pfet               1.00 
      287 xff_11.xm_4.                    nfet               1.00 
      288 xff_11.xm_5.                    nfet               1.00 
      289 xff_11.xm_6.                    pfet               1.00 
      290 xff_11.xm_7.                    pfet               1.00 
      291 xff_11.xm_8.                    pfet               1.00 
      292 xff_11.xm_9.                    nfet               1.00 
      293 xff_11.xm_10.                   nfet               1.00 
      294 xff_11.xm_11.                   pfet               1.00 
      295 xff_11.xm_12.                   pfet               1.00 
      296 xff_11.xm_13.                   nfet               1.00 
      297 xff_11.xm_14.                   nfet               1.00 
      298 xff_11.xm_15.                   nfet               1.00 
      299 xff_11.xm_16.                   nfet               1.00 
      300 xff_11.xm_17.                   nfet               1.00 
      301 xff_11.xm_18.                   nfet               1.00 
      302 xff_11.xm_19.                   pfet               1.00 
      303 xff_11.xm_20.                   pfet               1.00 
      304 xff_11.xinv_1.                  inv_size_1         1.00 
      305 xff_11.xinv_2.                  inv_size_1         1.00 
      306 xff_11.xinv_3.                  inv_size_1         1.00 
      307 xff_12.xm_1.                    pfet               1.00 
      308 xff_12.xm_2.                    pfet               1.00 
      309 xff_12.xm_3.                    pfet               1.00 
      310 xff_12.xm_4.                    nfet               1.00 
      311 xff_12.xm_5.                    nfet               1.00 
      312 xff_12.xm_6.                    pfet               1.00 
      313 xff_12.xm_7.                    pfet               1.00 
      314 xff_12.xm_8.                    pfet               1.00 
      315 xff_12.xm_9.                    nfet               1.00 
      316 xff_12.xm_10.                   nfet               1.00 
      317 xff_12.xm_11.                   pfet               1.00 
      318 xff_12.xm_12.                   pfet               1.00 
      319 xff_12.xm_13.                   nfet               1.00 
      320 xff_12.xm_14.                   nfet               1.00 
      321 xff_12.xm_15.                   nfet               1.00 
      322 xff_12.xm_16.                   nfet               1.00 
      323 xff_12.xm_17.                   nfet               1.00 
      324 xff_12.xm_18.                   nfet               1.00 
      325 xff_12.xm_19.                   pfet               1.00 
      326 xff_12.xm_20.                   pfet               1.00 
      327 xff_12.xinv_1.                  inv_size_1         1.00 
      328 xff_12.xinv_2.                  inv_size_1         1.00 
      329 xff_12.xinv_3.                  inv_size_1         1.00 
      330 xff_13.xm_1.                    pfet               1.00 
      331 xff_13.xm_2.                    pfet               1.00 
      332 xff_13.xm_3.                    pfet               1.00 
      333 xff_13.xm_4.                    nfet               1.00 
      334 xff_13.xm_5.                    nfet               1.00 
      335 xff_13.xm_6.                    pfet               1.00 
      336 xff_13.xm_7.                    pfet               1.00 
      337 xff_13.xm_8.                    pfet               1.00 
      338 xff_13.xm_9.                    nfet               1.00 
      339 xff_13.xm_10.                   nfet               1.00 
      340 xff_13.xm_11.                   pfet               1.00 
      341 xff_13.xm_12.                   pfet               1.00 
      342 xff_13.xm_13.                   nfet               1.00 
      343 xff_13.xm_14.                   nfet               1.00 
      344 xff_13.xm_15.                   nfet               1.00 
      345 xff_13.xm_16.                   nfet               1.00 
      346 xff_13.xm_17.                   nfet               1.00 
      347 xff_13.xm_18.                   nfet               1.00 
      348 xff_13.xm_19.                   pfet               1.00 
      349 xff_13.xm_20.                   pfet               1.00 
      350 xff_13.xinv_1.                  inv_size_1         1.00 
      351 xff_13.xinv_2.                  inv_size_1         1.00 
      352 xff_13.xinv_3.                  inv_size_1         1.00 
      353 xff_14.xm_1.                    pfet               1.00 
      354 xff_14.xm_2.                    pfet               1.00 
      355 xff_14.xm_3.                    pfet               1.00 
      356 xff_14.xm_4.                    nfet               1.00 
      357 xff_14.xm_5.                    nfet               1.00 
      358 xff_14.xm_6.                    pfet               1.00 
      359 xff_14.xm_7.                    pfet               1.00 
      360 xff_14.xm_8.                    pfet               1.00 
      361 xff_14.xm_9.                    nfet               1.00 
      362 xff_14.xm_10.                   nfet               1.00 
      363 xff_14.xm_11.                   pfet               1.00 
      364 xff_14.xm_12.                   pfet               1.00 
      365 xff_14.xm_13.                   nfet               1.00 
      366 xff_14.xm_14.                   nfet               1.00 
      367 xff_14.xm_15.                   nfet               1.00 
      368 xff_14.xm_16.                   nfet               1.00 
      369 xff_14.xm_17.                   nfet               1.00 
      370 xff_14.xm_18.                   nfet               1.00 
      371 xff_14.xm_19.                   pfet               1.00 
      372 xff_14.xm_20.                   pfet               1.00 
      373 xff_14.xinv_1.                  inv_size_1         1.00 
      374 xff_14.xinv_2.                  inv_size_1         1.00 
      375 xff_14.xinv_3.                  inv_size_1         1.00 
      376 xff_15.xm_1.                    pfet               1.00 
      377 xff_15.xm_2.                    pfet               1.00 
      378 xff_15.xm_3.                    pfet               1.00 
      379 xff_15.xm_4.                    nfet               1.00 
      380 xff_15.xm_5.                    nfet               1.00 
      381 xff_15.xm_6.                    pfet               1.00 
      382 xff_15.xm_7.                    pfet               1.00 
      383 xff_15.xm_8.                    pfet               1.00 
      384 xff_15.xm_9.                    nfet               1.00 
      385 xff_15.xm_10.                   nfet               1.00 
      386 xff_15.xm_11.                   pfet               1.00 
      387 xff_15.xm_12.                   pfet               1.00 
      388 xff_15.xm_13.                   nfet               1.00 
      389 xff_15.xm_14.                   nfet               1.00 
      390 xff_15.xm_15.                   nfet               1.00 
      391 xff_15.xm_16.                   nfet               1.00 
      392 xff_15.xm_17.                   nfet               1.00 
      393 xff_15.xm_18.                   nfet               1.00 
      394 xff_15.xm_19.                   pfet               1.00 
      395 xff_15.xm_20.                   pfet               1.00 
      396 xff_15.xinv_1.                  inv_size_1         1.00 
      397 xff_15.xinv_2.                  inv_size_1         1.00 
      398 xff_15.xinv_3.                  inv_size_1         1.00 
      399 xff_16.xm_1.                    pfet               1.00 
      400 xff_16.xm_2.                    pfet               1.00 
      401 xff_16.xm_3.                    pfet               1.00 
      402 xff_16.xm_4.                    nfet               1.00 
      403 xff_16.xm_5.                    nfet               1.00 
      404 xff_16.xm_6.                    pfet               1.00 
      405 xff_16.xm_7.                    pfet               1.00 
      406 xff_16.xm_8.                    pfet               1.00 
      407 xff_16.xm_9.                    nfet               1.00 
      408 xff_16.xm_10.                   nfet               1.00 
      409 xff_16.xm_11.                   pfet               1.00 
      410 xff_16.xm_12.                   pfet               1.00 
      411 xff_16.xm_13.                   nfet               1.00 
      412 xff_16.xm_14.                   nfet               1.00 
      413 xff_16.xm_15.                   nfet               1.00 
      414 xff_16.xm_16.                   nfet               1.00 
      415 xff_16.xm_17.                   nfet               1.00 
      416 xff_16.xm_18.                   nfet               1.00 
      417 xff_16.xm_19.                   pfet               1.00 
      418 xff_16.xm_20.                   pfet               1.00 
      419 xff_16.xinv_1.                  inv_size_1         1.00 
      420 xff_16.xinv_2.                  inv_size_1         1.00 
      421 xff_16.xinv_3.                  inv_size_1         1.00 
      422 xxor_1.xpfet_1.                 pfet               1.00 
      423 xxor_1.xpfet_2.                 pfet               1.00 
      424 xxor_1.xnfet_1.                 nfet               1.00 
      425 xxor_1.xnfet_2.                 nfet               1.00 
      426 xxor_1.xpfet_3.                 pfet               1.00 
      427 xxor_1.xpfet_4.                 pfet               1.00 
      428 xxor_1.xpfet_5.                 pfet               1.00 
      429 xxor_1.xnfet_3.                 nfet               1.00 
      430 xxor_1.xnfet_4.                 nfet               1.00 
      431 xxor_1.xnfet_5.                 nfet               1.00 
      432 xxor_2.xpfet_1.                 pfet               1.00 
      433 xxor_2.xpfet_2.                 pfet               1.00 
      434 xxor_2.xnfet_1.                 nfet               1.00 
      435 xxor_2.xnfet_2.                 nfet               1.00 
      436 xxor_2.xpfet_3.                 pfet               1.00 
      437 xxor_2.xpfet_4.                 pfet               1.00 
      438 xxor_2.xpfet_5.                 pfet               1.00 
      439 xxor_2.xnfet_3.                 nfet               1.00 
      440 xxor_2.xnfet_4.                 nfet               1.00 
      441 xxor_2.xnfet_5.                 nfet               1.00 
      442 xxor_3.xpfet_1.                 pfet               1.00 
      443 xxor_3.xpfet_2.                 pfet               1.00 
      444 xxor_3.xnfet_1.                 nfet               1.00 
      445 xxor_3.xnfet_2.                 nfet               1.00 
      446 xxor_3.xpfet_3.                 pfet               1.00 
      447 xxor_3.xpfet_4.                 pfet               1.00 
      448 xxor_3.xpfet_5.                 pfet               1.00 
      449 xxor_3.xnfet_3.                 nfet               1.00 
      450 xxor_3.xnfet_4.                 nfet               1.00 
      451 xxor_3.xnfet_5.                 nfet               1.00 
      452 xor2.xpfet_1.                   pfet               1.00 
      453 xor2.xpfet_2.                   pfet               1.00 
      454 xor2.xnfet_1.                   nfet               1.00 
      455 xor2.xnfet_2.                   nfet               1.00 
      456 xor2.xinv_size_1.               inv_size_1         1.00 
      457 xbuffer_1.xinv_size_4_in.xpfet. pfet               1.00 
      458 xbuffer_1.xinv_size_4_in.xnfet. nfet               1.00 
      459 xbuffer_1.xinv_size_1_out_1.xpfet.
                                            pfet               1.00 
      460 xbuffer_1.xinv_size_1_out_1.xnfet.
                                            nfet               1.00 
      461 xbuffer_1.xinv_size_1_out_2.xpfet.
                                            pfet               1.00 
      462 xbuffer_1.xinv_size_1_out_2.xnfet.
                                            nfet               1.00 
      463 xbuffer_1.xinv_size_1_out_3.xpfet.
                                            pfet               1.00 
      464 xbuffer_1.xinv_size_1_out_3.xnfet.
                                            nfet               1.00 
      465 xbuffer_1.xinv_size_1_out_4.xpfet.
                                            pfet               1.00 
      466 xbuffer_1.xinv_size_1_out_4.xnfet.
                                            nfet               1.00 
      467 xbuffer_2_1.xinv_size_4_in.xpfet.
                                            pfet               1.00 
      468 xbuffer_2_1.xinv_size_4_in.xnfet.
                                            nfet               1.00 
      469 xbuffer_2_1.xinv_size_1_out_1.xpfet.
                                            pfet               1.00 
      470 xbuffer_2_1.xinv_size_1_out_1.xnfet.
                                            nfet               1.00 
      471 xbuffer_2_1.xinv_size_1_out_2.xpfet.
                                            pfet               1.00 
      472 xbuffer_2_1.xinv_size_1_out_2.xnfet.
                                            nfet               1.00 
      473 xbuffer_2_1.xinv_size_1_out_3.xpfet.
                                            pfet               1.00 
      474 xbuffer_2_1.xinv_size_1_out_3.xnfet.
                                            nfet               1.00 
      475 xbuffer_2_1.xinv_size_1_out_4.xpfet.
                                            pfet               1.00 
      476 xbuffer_2_1.xinv_size_1_out_4.xnfet.
                                            nfet               1.00 
      477 xbuffer_2_2.xinv_size_4_in.xpfet.
                                            pfet               1.00 
      478 xbuffer_2_2.xinv_size_4_in.xnfet.
                                            nfet               1.00 
      479 xbuffer_2_2.xinv_size_1_out_1.xpfet.
                                            pfet               1.00 
      480 xbuffer_2_2.xinv_size_1_out_1.xnfet.
                                            nfet               1.00 
      481 xbuffer_2_2.xinv_size_1_out_2.xpfet.
                                            pfet               1.00 
      482 xbuffer_2_2.xinv_size_1_out_2.xnfet.
                                            nfet               1.00 
      483 xbuffer_2_2.xinv_size_1_out_3.xpfet.
                                            pfet               1.00 
      484 xbuffer_2_2.xinv_size_1_out_3.xnfet.
                                            nfet               1.00 
      485 xbuffer_2_2.xinv_size_1_out_4.xpfet.
                                            pfet               1.00 
      486 xbuffer_2_2.xinv_size_1_out_4.xnfet.
                                            nfet               1.00 
      487 xbuffer_2_3.xinv_size_4_in.xpfet.
                                            pfet               1.00 
      488 xbuffer_2_3.xinv_size_4_in.xnfet.
                                            nfet               1.00 
      489 xbuffer_2_3.xinv_size_1_out_1.xpfet.
                                            pfet               1.00 
      490 xbuffer_2_3.xinv_size_1_out_1.xnfet.
                                            nfet               1.00 
      491 xbuffer_2_3.xinv_size_1_out_2.xpfet.
                                            pfet               1.00 
      492 xbuffer_2_3.xinv_size_1_out_2.xnfet.
                                            nfet               1.00 
      493 xbuffer_2_3.xinv_size_1_out_3.xpfet.
                                            pfet               1.00 
      494 xbuffer_2_3.xinv_size_1_out_3.xnfet.
                                            nfet               1.00 
      495 xbuffer_2_3.xinv_size_1_out_4.xpfet.
                                            pfet               1.00 
      496 xbuffer_2_3.xinv_size_1_out_4.xnfet.
                                            nfet               1.00 
      497 xbuffer_2_4.xinv_size_4_in.xpfet.
                                            pfet               1.00 
      498 xbuffer_2_4.xinv_size_4_in.xnfet.
                                            nfet               1.00 
      499 xbuffer_2_4.xinv_size_1_out_1.xpfet.
                                            pfet               1.00 
      500 xbuffer_2_4.xinv_size_1_out_1.xnfet.
                                            nfet               1.00 
      501 xbuffer_2_4.xinv_size_1_out_2.xpfet.
                                            pfet               1.00 
      502 xbuffer_2_4.xinv_size_1_out_2.xnfet.
                                            nfet               1.00 
      503 xbuffer_2_4.xinv_size_1_out_3.xpfet.
                                            pfet               1.00 
      504 xbuffer_2_4.xinv_size_1_out_3.xnfet.
                                            nfet               1.00 
      505 xbuffer_2_4.xinv_size_1_out_4.xpfet.
                                            pfet               1.00 
      506 xbuffer_2_4.xinv_size_1_out_4.xnfet.
                                            nfet               1.00 
      507 xff_1.xinv_1.xpfet.             pfet               1.00 
      508 xff_1.xinv_1.xnfet.             nfet               1.00 
      509 xff_1.xinv_2.xpfet.             pfet               1.00 
      510 xff_1.xinv_2.xnfet.             nfet               1.00 
      511 xff_1.xinv_3.xpfet.             pfet               1.00 
      512 xff_1.xinv_3.xnfet.             nfet               1.00 
      513 xff_2.xinv_1.xpfet.             pfet               1.00 
      514 xff_2.xinv_1.xnfet.             nfet               1.00 
      515 xff_2.xinv_2.xpfet.             pfet               1.00 
      516 xff_2.xinv_2.xnfet.             nfet               1.00 
      517 xff_2.xinv_3.xpfet.             pfet               1.00 
      518 xff_2.xinv_3.xnfet.             nfet               1.00 
      519 xff_3.xinv_1.xpfet.             pfet               1.00 
      520 xff_3.xinv_1.xnfet.             nfet               1.00 
      521 xff_3.xinv_2.xpfet.             pfet               1.00 
      522 xff_3.xinv_2.xnfet.             nfet               1.00 
      523 xff_3.xinv_3.xpfet.             pfet               1.00 
      524 xff_3.xinv_3.xnfet.             nfet               1.00 
      525 xff_4.xinv_1.xpfet.             pfet               1.00 
      526 xff_4.xinv_1.xnfet.             nfet               1.00 
      527 xff_4.xinv_2.xpfet.             pfet               1.00 
      528 xff_4.xinv_2.xnfet.             nfet               1.00 
      529 xff_4.xinv_3.xpfet.             pfet               1.00 
      530 xff_4.xinv_3.xnfet.             nfet               1.00 
      531 xff_5.xinv_1.xpfet.             pfet               1.00 
      532 xff_5.xinv_1.xnfet.             nfet               1.00 
      533 xff_5.xinv_2.xpfet.             pfet               1.00 
      534 xff_5.xinv_2.xnfet.             nfet               1.00 
      535 xff_5.xinv_3.xpfet.             pfet               1.00 
      536 xff_5.xinv_3.xnfet.             nfet               1.00 
      537 xff_6.xinv_1.xpfet.             pfet               1.00 
      538 xff_6.xinv_1.xnfet.             nfet               1.00 
      539 xff_6.xinv_2.xpfet.             pfet               1.00 
      540 xff_6.xinv_2.xnfet.             nfet               1.00 
      541 xff_6.xinv_3.xpfet.             pfet               1.00 
      542 xff_6.xinv_3.xnfet.             nfet               1.00 
      543 xff_7.xinv_1.xpfet.             pfet               1.00 
      544 xff_7.xinv_1.xnfet.             nfet               1.00 
      545 xff_7.xinv_2.xpfet.             pfet               1.00 
      546 xff_7.xinv_2.xnfet.             nfet               1.00 
      547 xff_7.xinv_3.xpfet.             pfet               1.00 
      548 xff_7.xinv_3.xnfet.             nfet               1.00 
      549 xff_8.xinv_1.xpfet.             pfet               1.00 
      550 xff_8.xinv_1.xnfet.             nfet               1.00 
      551 xff_8.xinv_2.xpfet.             pfet               1.00 
      552 xff_8.xinv_2.xnfet.             nfet               1.00 
      553 xff_8.xinv_3.xpfet.             pfet               1.00 
      554 xff_8.xinv_3.xnfet.             nfet               1.00 
      555 xff_9.xinv_1.xpfet.             pfet               1.00 
      556 xff_9.xinv_1.xnfet.             nfet               1.00 
      557 xff_9.xinv_2.xpfet.             pfet               1.00 
      558 xff_9.xinv_2.xnfet.             nfet               1.00 
      559 xff_9.xinv_3.xpfet.             pfet               1.00 
      560 xff_9.xinv_3.xnfet.             nfet               1.00 
      561 xff_10.xinv_1.xpfet.            pfet               1.00 
      562 xff_10.xinv_1.xnfet.            nfet               1.00 
      563 xff_10.xinv_2.xpfet.            pfet               1.00 
      564 xff_10.xinv_2.xnfet.            nfet               1.00 
      565 xff_10.xinv_3.xpfet.            pfet               1.00 
      566 xff_10.xinv_3.xnfet.            nfet               1.00 
      567 xff_11.xinv_1.xpfet.            pfet               1.00 
      568 xff_11.xinv_1.xnfet.            nfet               1.00 
      569 xff_11.xinv_2.xpfet.            pfet               1.00 
      570 xff_11.xinv_2.xnfet.            nfet               1.00 
      571 xff_11.xinv_3.xpfet.            pfet               1.00 
      572 xff_11.xinv_3.xnfet.            nfet               1.00 
      573 xff_12.xinv_1.xpfet.            pfet               1.00 
      574 xff_12.xinv_1.xnfet.            nfet               1.00 
      575 xff_12.xinv_2.xpfet.            pfet               1.00 
      576 xff_12.xinv_2.xnfet.            nfet               1.00 
      577 xff_12.xinv_3.xpfet.            pfet               1.00 
      578 xff_12.xinv_3.xnfet.            nfet               1.00 
      579 xff_13.xinv_1.xpfet.            pfet               1.00 
      580 xff_13.xinv_1.xnfet.            nfet               1.00 
      581 xff_13.xinv_2.xpfet.            pfet               1.00 
      582 xff_13.xinv_2.xnfet.            nfet               1.00 
      583 xff_13.xinv_3.xpfet.            pfet               1.00 
      584 xff_13.xinv_3.xnfet.            nfet               1.00 
      585 xff_14.xinv_1.xpfet.            pfet               1.00 
      586 xff_14.xinv_1.xnfet.            nfet               1.00 
      587 xff_14.xinv_2.xpfet.            pfet               1.00 
      588 xff_14.xinv_2.xnfet.            nfet               1.00 
      589 xff_14.xinv_3.xpfet.            pfet               1.00 
      590 xff_14.xinv_3.xnfet.            nfet               1.00 
      591 xff_15.xinv_1.xpfet.            pfet               1.00 
      592 xff_15.xinv_1.xnfet.            nfet               1.00 
      593 xff_15.xinv_2.xpfet.            pfet               1.00 
      594 xff_15.xinv_2.xnfet.            nfet               1.00 
      595 xff_15.xinv_3.xpfet.            pfet               1.00 
      596 xff_15.xinv_3.xnfet.            nfet               1.00 
      597 xff_16.xinv_1.xpfet.            pfet               1.00 
      598 xff_16.xinv_1.xnfet.            nfet               1.00 
      599 xff_16.xinv_2.xpfet.            pfet               1.00 
      600 xff_16.xinv_2.xnfet.            nfet               1.00 
      601 xff_16.xinv_3.xpfet.            pfet               1.00 
      602 xff_16.xinv_3.xnfet.            nfet               1.00 
      603 xor2.xinv_size_1.xpfet.         pfet               1.00 
      604 xor2.xinv_size_1.xnfet.         nfet               1.00 


 circuit parameter definitions
  parameter          =  value 

     0:temp                                                    =  35.0000       
     0:temper@_1                                               =  35.0000       
     0:vdd                                                     = 750.0000m      
     0:vddp                                                    =-750.0000m      
     0:fin_height                                              =  21.0000n      
     0:fin_width                                               =   9.0000n      
     0:lg                                                      =  14.0000n      
     0:supply                                                  = 750.0000m      
     0:period                                                  =   4.0000u      
     0:avg_p_vdd_design                                        =   0.           
     0:avg_p_vdd_clk                                           =   0.           
    27:l                                                       =  14.0000n      
    27:nfin                                                    =   4.0000       
    28:l                                                       =  14.0000n      
    28:nfin                                                    =   4.0000       
    54:l                                                       =  14.0000n      
    54:nfin                                                    =   1.0000       
    55:nfin                                                    =   1.0000       
    56:nfin                                                    =   1.0000       
    57:l                                                       =  14.0000n      
    57:nfin                                                    =   1.0000       
    58:nfin                                                    =   1.0000       
    59:nfin                                                    =   1.0000       
    60:nfin                                                    =   1.0000       
    61:nfin                                                    =   1.0000       
    62:nfin                                                    =   1.0000       
    63:nfin                                                    =   1.0000       
    64:nfin                                                    =   1.0000       
    65:nfin                                                    =   1.0000       
    66:nfin                                                    =   1.0000       
    67:nfin                                                    =   1.0000       
    68:nfin                                                    =   1.0000       
    69:nfin                                                    =   1.0000       
    70:nfin                                                    =   1.0000       
    71:nfin                                                    =   1.0000       
    72:nfin                                                    =   1.0000       
    73:nfin                                                    =   1.0000       
    77:nfin                                                    =   1.0000       
    78:nfin                                                    =   1.0000       
    79:nfin                                                    =   1.0000       
    80:nfin                                                    =   1.0000       
    81:nfin                                                    =   1.0000       
    82:nfin                                                    =   1.0000       
    83:nfin                                                    =   1.0000       
    84:nfin                                                    =   1.0000       
    85:nfin                                                    =   1.0000       
    86:nfin                                                    =   1.0000       
    87:nfin                                                    =   1.0000       
    88:nfin                                                    =   1.0000       
    89:nfin                                                    =   1.0000       
    90:nfin                                                    =   1.0000       
    91:nfin                                                    =   1.0000       
    92:nfin                                                    =   1.0000       
    93:nfin                                                    =   1.0000       
    94:nfin                                                    =   1.0000       
    95:nfin                                                    =   1.0000       
    96:nfin                                                    =   1.0000       
   100:nfin                                                    =   1.0000       
   101:nfin                                                    =   1.0000       
   102:nfin                                                    =   1.0000       
   103:nfin                                                    =   1.0000       
   104:nfin                                                    =   1.0000       
   105:nfin                                                    =   1.0000       
   106:nfin                                                    =   1.0000       
   107:nfin                                                    =   1.0000       
   108:nfin                                                    =   1.0000       
   109:nfin                                                    =   1.0000       
   110:nfin                                                    =   1.0000       
   111:nfin                                                    =   1.0000       
   112:nfin                                                    =   1.0000       
   113:nfin                                                    =   1.0000       
   114:nfin                                                    =   1.0000       
   115:nfin                                                    =   1.0000       
   116:nfin                                                    =   1.0000       
   117:nfin                                                    =   1.0000       
   118:nfin                                                    =   1.0000       
   119:nfin                                                    =   1.0000       
   123:nfin                                                    =   1.0000       
   124:nfin                                                    =   1.0000       
   125:nfin                                                    =   1.0000       
   126:nfin                                                    =   1.0000       
   127:nfin                                                    =   1.0000       
   128:nfin                                                    =   1.0000       
   129:nfin                                                    =   1.0000       
   130:nfin                                                    =   1.0000       
   131:nfin                                                    =   1.0000       
   132:nfin                                                    =   1.0000       
   133:nfin                                                    =   1.0000       
   134:nfin                                                    =   1.0000       
   135:nfin                                                    =   1.0000       
   136:nfin                                                    =   1.0000       
   137:nfin                                                    =   1.0000       
   138:nfin                                                    =   1.0000       
   139:nfin                                                    =   1.0000       
   140:nfin                                                    =   1.0000       
   141:nfin                                                    =   1.0000       
   142:nfin                                                    =   1.0000       
   146:nfin                                                    =   1.0000       
   147:nfin                                                    =   1.0000       
   148:nfin                                                    =   1.0000       
   149:nfin                                                    =   1.0000       
   150:nfin                                                    =   1.0000       
   151:nfin                                                    =   1.0000       
   152:nfin                                                    =   1.0000       
   153:nfin                                                    =   1.0000       
   154:nfin                                                    =   1.0000       
   155:nfin                                                    =   1.0000       
   156:nfin                                                    =   1.0000       
   157:nfin                                                    =   1.0000       
   158:nfin                                                    =   1.0000       
   159:nfin                                                    =   1.0000       
   160:nfin                                                    =   1.0000       
   161:nfin                                                    =   1.0000       
   162:nfin                                                    =   1.0000       
   163:nfin                                                    =   1.0000       
   164:nfin                                                    =   1.0000       
   165:nfin                                                    =   1.0000       
   169:nfin                                                    =   1.0000       
   170:nfin                                                    =   1.0000       
   171:nfin                                                    =   1.0000       
   172:nfin                                                    =   1.0000       
   173:nfin                                                    =   1.0000       
   174:nfin                                                    =   1.0000       
   175:nfin                                                    =   1.0000       
   176:nfin                                                    =   1.0000       
   177:nfin                                                    =   1.0000       
   178:nfin                                                    =   1.0000       
   179:nfin                                                    =   1.0000       
   180:nfin                                                    =   1.0000       
   181:nfin                                                    =   1.0000       
   182:nfin                                                    =   1.0000       
   183:nfin                                                    =   1.0000       
   184:nfin                                                    =   1.0000       
   185:nfin                                                    =   1.0000       
   186:nfin                                                    =   1.0000       
   187:nfin                                                    =   1.0000       
   188:nfin                                                    =   1.0000       
   192:nfin                                                    =   1.0000       
   193:nfin                                                    =   1.0000       
   194:nfin                                                    =   1.0000       
   195:nfin                                                    =   1.0000       
   196:nfin                                                    =   1.0000       
   197:nfin                                                    =   1.0000       
   198:nfin                                                    =   1.0000       
   199:nfin                                                    =   1.0000       
   200:nfin                                                    =   1.0000       
   201:nfin                                                    =   1.0000       
   202:nfin                                                    =   1.0000       
   203:nfin                                                    =   1.0000       
   204:nfin                                                    =   1.0000       
   205:nfin                                                    =   1.0000       
   206:nfin                                                    =   1.0000       
   207:nfin                                                    =   1.0000       
   208:nfin                                                    =   1.0000       
   209:nfin                                                    =   1.0000       
   210:nfin                                                    =   1.0000       
   211:nfin                                                    =   1.0000       
   215:nfin                                                    =   1.0000       
   216:nfin                                                    =   1.0000       
   217:nfin                                                    =   1.0000       
   218:nfin                                                    =   1.0000       
   219:nfin                                                    =   1.0000       
   220:nfin                                                    =   1.0000       
   221:nfin                                                    =   1.0000       
   222:nfin                                                    =   1.0000       
   223:nfin                                                    =   1.0000       
   224:nfin                                                    =   1.0000       
   225:nfin                                                    =   1.0000       
   226:nfin                                                    =   1.0000       
   227:nfin                                                    =   1.0000       
   228:nfin                                                    =   1.0000       
   229:nfin                                                    =   1.0000       
   230:nfin                                                    =   1.0000       
   231:nfin                                                    =   1.0000       
   232:nfin                                                    =   1.0000       
   233:nfin                                                    =   1.0000       
   234:nfin                                                    =   1.0000       
   238:nfin                                                    =   1.0000       
   239:nfin                                                    =   1.0000       
   240:nfin                                                    =   1.0000       
   241:nfin                                                    =   1.0000       
   242:nfin                                                    =   1.0000       
   243:nfin                                                    =   1.0000       
   244:nfin                                                    =   1.0000       
   245:nfin                                                    =   1.0000       
   246:nfin                                                    =   1.0000       
   247:nfin                                                    =   1.0000       
   248:nfin                                                    =   1.0000       
   249:nfin                                                    =   1.0000       
   250:nfin                                                    =   1.0000       
   251:nfin                                                    =   1.0000       
   252:nfin                                                    =   1.0000       
   253:nfin                                                    =   1.0000       
   254:nfin                                                    =   1.0000       
   255:nfin                                                    =   1.0000       
   256:nfin                                                    =   1.0000       
   257:nfin                                                    =   1.0000       
   261:nfin                                                    =   1.0000       
   262:nfin                                                    =   1.0000       
   263:nfin                                                    =   1.0000       
   264:nfin                                                    =   1.0000       
   265:nfin                                                    =   1.0000       
   266:nfin                                                    =   1.0000       
   267:nfin                                                    =   1.0000       
   268:nfin                                                    =   1.0000       
   269:nfin                                                    =   1.0000       
   270:nfin                                                    =   1.0000       
   271:nfin                                                    =   1.0000       
   272:nfin                                                    =   1.0000       
   273:nfin                                                    =   1.0000       
   274:nfin                                                    =   1.0000       
   275:nfin                                                    =   1.0000       
   276:nfin                                                    =   1.0000       
   277:nfin                                                    =   1.0000       
   278:nfin                                                    =   1.0000       
   279:nfin                                                    =   1.0000       
   280:nfin                                                    =   1.0000       
   284:nfin                                                    =   1.0000       
   285:nfin                                                    =   1.0000       
   286:nfin                                                    =   1.0000       
   287:nfin                                                    =   1.0000       
   288:nfin                                                    =   1.0000       
   289:nfin                                                    =   1.0000       
   290:nfin                                                    =   1.0000       
   291:nfin                                                    =   1.0000       
   292:nfin                                                    =   1.0000       
   293:nfin                                                    =   1.0000       
   294:nfin                                                    =   1.0000       
   295:nfin                                                    =   1.0000       
   296:nfin                                                    =   1.0000       
   297:nfin                                                    =   1.0000       
   298:nfin                                                    =   1.0000       
   299:nfin                                                    =   1.0000       
   300:nfin                                                    =   1.0000       
   301:nfin                                                    =   1.0000       
   302:nfin                                                    =   1.0000       
   303:nfin                                                    =   1.0000       
   307:nfin                                                    =   1.0000       
   308:nfin                                                    =   1.0000       
   309:nfin                                                    =   1.0000       
   310:nfin                                                    =   1.0000       
   311:nfin                                                    =   1.0000       
   312:nfin                                                    =   1.0000       
   313:nfin                                                    =   1.0000       
   314:nfin                                                    =   1.0000       
   315:nfin                                                    =   1.0000       
   316:nfin                                                    =   1.0000       
   317:nfin                                                    =   1.0000       
   318:nfin                                                    =   1.0000       
   319:nfin                                                    =   1.0000       
   320:nfin                                                    =   1.0000       
   321:nfin                                                    =   1.0000       
   322:nfin                                                    =   1.0000       
   323:nfin                                                    =   1.0000       
   324:nfin                                                    =   1.0000       
   325:nfin                                                    =   1.0000       
   326:nfin                                                    =   1.0000       
   330:nfin                                                    =   1.0000       
   331:nfin                                                    =   1.0000       
   332:nfin                                                    =   1.0000       
   333:nfin                                                    =   1.0000       
   334:nfin                                                    =   1.0000       
   335:nfin                                                    =   1.0000       
   336:nfin                                                    =   1.0000       
   337:nfin                                                    =   1.0000       
   338:nfin                                                    =   1.0000       
   339:nfin                                                    =   1.0000       
   340:nfin                                                    =   1.0000       
   341:nfin                                                    =   1.0000       
   342:nfin                                                    =   1.0000       
   343:nfin                                                    =   1.0000       
   344:nfin                                                    =   1.0000       
   345:nfin                                                    =   1.0000       
   346:nfin                                                    =   1.0000       
   347:nfin                                                    =   1.0000       
   348:nfin                                                    =   1.0000       
   349:nfin                                                    =   1.0000       
   353:nfin                                                    =   1.0000       
   354:nfin                                                    =   1.0000       
   355:nfin                                                    =   1.0000       
   356:nfin                                                    =   1.0000       
   357:nfin                                                    =   1.0000       
   358:nfin                                                    =   1.0000       
   359:nfin                                                    =   1.0000       
   360:nfin                                                    =   1.0000       
   361:nfin                                                    =   1.0000       
   362:nfin                                                    =   1.0000       
   363:nfin                                                    =   1.0000       
   364:nfin                                                    =   1.0000       
   365:nfin                                                    =   1.0000       
   366:nfin                                                    =   1.0000       
   367:nfin                                                    =   1.0000       
   368:nfin                                                    =   1.0000       
   369:nfin                                                    =   1.0000       
   370:nfin                                                    =   1.0000       
   371:nfin                                                    =   1.0000       
   372:nfin                                                    =   1.0000       
   376:nfin                                                    =   1.0000       
   377:nfin                                                    =   1.0000       
   378:nfin                                                    =   1.0000       
   379:nfin                                                    =   1.0000       
   380:nfin                                                    =   1.0000       
   381:nfin                                                    =   1.0000       
   382:nfin                                                    =   1.0000       
   383:nfin                                                    =   1.0000       
   384:nfin                                                    =   1.0000       
   385:nfin                                                    =   1.0000       
   386:nfin                                                    =   1.0000       
   387:nfin                                                    =   1.0000       
   388:nfin                                                    =   1.0000       
   389:nfin                                                    =   1.0000       
   390:nfin                                                    =   1.0000       
   391:nfin                                                    =   1.0000       
   392:nfin                                                    =   1.0000       
   393:nfin                                                    =   1.0000       
   394:nfin                                                    =   1.0000       
   395:nfin                                                    =   1.0000       
   399:nfin                                                    =   1.0000       
   400:nfin                                                    =   1.0000       
   401:nfin                                                    =   1.0000       
   402:nfin                                                    =   1.0000       
   403:nfin                                                    =   1.0000       
   404:nfin                                                    =   1.0000       
   405:nfin                                                    =   1.0000       
   406:nfin                                                    =   1.0000       
   407:nfin                                                    =   1.0000       
   408:nfin                                                    =   1.0000       
   409:nfin                                                    =   1.0000       
   410:nfin                                                    =   1.0000       
   411:nfin                                                    =   1.0000       
   412:nfin                                                    =   1.0000       
   413:nfin                                                    =   1.0000       
   414:nfin                                                    =   1.0000       
   415:nfin                                                    =   1.0000       
   416:nfin                                                    =   1.0000       
   417:nfin                                                    =   1.0000       
   418:nfin                                                    =   1.0000       
   422:l                                                       =  14.0000n      
   422:nfin                                                    =   1.0000       
   423:nfin                                                    =   1.0000       
   424:l                                                       =  14.0000n      
   424:nfin                                                    =   1.0000       
   425:nfin                                                    =   1.0000       
   426:nfin                                                    =   1.0000       
   427:nfin                                                    =   1.0000       
   428:nfin                                                    =   1.0000       
   429:nfin                                                    =   1.0000       
   430:nfin                                                    =   1.0000       
   431:nfin                                                    =   1.0000       
   432:nfin                                                    =   1.0000       
   433:nfin                                                    =   1.0000       
   434:nfin                                                    =   1.0000       
   435:nfin                                                    =   1.0000       
   436:nfin                                                    =   1.0000       
   437:nfin                                                    =   1.0000       
   438:nfin                                                    =   1.0000       
   439:nfin                                                    =   1.0000       
   440:nfin                                                    =   1.0000       
   441:nfin                                                    =   1.0000       
   442:nfin                                                    =   1.0000       
   443:nfin                                                    =   1.0000       
   444:nfin                                                    =   1.0000       
   445:nfin                                                    =   1.0000       
   446:nfin                                                    =   1.0000       
   447:nfin                                                    =   1.0000       
   448:nfin                                                    =   1.0000       
   449:nfin                                                    =   1.0000       
   450:nfin                                                    =   1.0000       
   451:nfin                                                    =   1.0000       
   452:l                                                       =  14.0000n      
   452:nfin                                                    =   1.0000       
   453:nfin                                                    =   1.0000       
   454:l                                                       =  14.0000n      
   454:nfin                                                    =   1.0000       
   455:nfin                                                    =   1.0000       
   457:l                                                       =  14.0000n      
   457:nfin                                                    =   4.0000       
   458:l                                                       =  14.0000n      
   458:nfin                                                    =   4.0000       
   459:l                                                       =  14.0000n      
   459:nfin                                                    =   1.0000       
   460:l                                                       =  14.0000n      
   460:nfin                                                    =   1.0000       
   461:nfin                                                    =   1.0000       
   462:nfin                                                    =   1.0000       
   463:nfin                                                    =   1.0000       
   464:nfin                                                    =   1.0000       
   465:nfin                                                    =   1.0000       
   466:nfin                                                    =   1.0000       
   467:nfin                                                    =   1.0000       
   468:nfin                                                    =   1.0000       
   469:nfin                                                    =   1.0000       
   470:nfin                                                    =   1.0000       
   471:nfin                                                    =   1.0000       
   472:nfin                                                    =   1.0000       
   473:nfin                                                    =   1.0000       
   474:nfin                                                    =   1.0000       
   475:nfin                                                    =   1.0000       
   476:nfin                                                    =   1.0000       
   477:nfin                                                    =   1.0000       
   478:nfin                                                    =   1.0000       
   479:nfin                                                    =   1.0000       
   480:nfin                                                    =   1.0000       
   481:nfin                                                    =   1.0000       
   482:nfin                                                    =   1.0000       
   483:nfin                                                    =   1.0000       
   484:nfin                                                    =   1.0000       
   485:nfin                                                    =   1.0000       
   486:nfin                                                    =   1.0000       
   487:nfin                                                    =   1.0000       
   488:nfin                                                    =   1.0000       
   489:nfin                                                    =   1.0000       
   490:nfin                                                    =   1.0000       
   491:nfin                                                    =   1.0000       
   492:nfin                                                    =   1.0000       
   493:nfin                                                    =   1.0000       
   494:nfin                                                    =   1.0000       
   495:nfin                                                    =   1.0000       
   496:nfin                                                    =   1.0000       
   497:nfin                                                    =   1.0000       
   498:nfin                                                    =   1.0000       
   499:nfin                                                    =   1.0000       
   500:nfin                                                    =   1.0000       
   501:nfin                                                    =   1.0000       
   502:nfin                                                    =   1.0000       
   503:nfin                                                    =   1.0000       
   504:nfin                                                    =   1.0000       
   505:nfin                                                    =   1.0000       
   506:nfin                                                    =   1.0000       
   507:l                                                       =  14.0000n      
   507:nfin                                                    =   1.0000       
   508:l                                                       =  14.0000n      
   508:nfin                                                    =   1.0000       
   509:nfin                                                    =   1.0000       
   510:nfin                                                    =   1.0000       
   511:nfin                                                    =   1.0000       
[...]
      517:mpfet               1.4806k          1.4806k          0.               0.               0.               0.           
      518:mnfet               1.2956k          1.2956k          0.               0.               0.               0.           
      519:mpfet               1.4806k          1.4806k          0.               0.               0.               0.           
      520:mnfet               1.2956k          1.2956k          0.               0.               0.               0.           
      521:mpfet               1.4806k          1.4806k          0.               0.               0.               0.           
      522:mnfet               1.2956k          1.2956k          0.               0.               0.               0.           
      523:mpfet               1.4806k          1.4806k          0.               0.               0.               0.           
      524:mnfet               1.2956k          1.2956k          0.               0.               0.               0.           
      525:mpfet               1.4806k          1.4806k          0.               0.               0.               0.           
      526:mnfet               1.2956k          1.2956k          0.               0.               0.               0.           
      527:mpfet               1.4806k          1.4806k          0.               0.               0.               0.           
      528:mnfet               1.2956k          1.2956k          0.               0.               0.               0.           
      529:mpfet               1.4806k          1.4806k          0.               0.               0.               0.           
      530:mnfet               1.2956k          1.2956k          0.               0.               0.               0.           
      531:mpfet               1.4806k          1.4806k          0.               0.               0.               0.           
      532:mnfet               1.2956k          1.2956k          0.               0.               0.               0.           
      533:mpfet               1.4806k          1.4806k          0.               0.               0.               0.           
      534:mnfet               1.2956k          1.2956k          0.               0.               0.               0.           
      535:mpfet               1.4806k          1.4806k          0.               0.               0.               0.           
      536:mnfet               1.2956k          1.2956k          0.               0.               0.               0.           
      537:mpfet               1.4806k          1.4806k          0.               0.               0.               0.           
      538:mnfet               1.2956k          1.2956k          0.               0.               0.               0.           
      539:mpfet               1.4806k          1.4806k          0.               0.               0.               0.           
      540:mnfet               1.2956k          1.2956k          0.               0.               0.               0.           
      541:mpfet               1.4806k          1.4806k          0.               0.               0.               0.           
      542:mnfet               1.2956k          1.2956k          0.               0.               0.               0.           
      543:mpfet               1.4806k          1.4806k          0.               0.               0.               0.           
      544:mnfet               1.2956k          1.2956k          0.               0.               0.               0.           
      545:mpfet               1.4806k          1.4806k          0.               0.               0.               0.           
      546:mnfet               1.2956k          1.2956k          0.               0.               0.               0.           
      547:mpfet               1.4806k          1.4806k          0.               0.               0.               0.           
      548:mnfet               1.2956k          1.2956k          0.               0.               0.               0.           
      549:mpfet               1.4806k          1.4806k          0.               0.               0.               0.           
      550:mnfet               1.2956k          1.2956k          0.               0.               0.               0.           
      551:mpfet               1.4806k          1.4806k          0.               0.               0.               0.           
      552:mnfet               1.2956k          1.2956k          0.               0.               0.               0.           
      553:mpfet               1.4806k          1.4806k          0.               0.               0.               0.           
      554:mnfet               1.2956k          1.2956k          0.               0.               0.               0.           
      555:mpfet               1.4806k          1.4806k          0.               0.               0.               0.           
      556:mnfet               1.2956k          1.2956k          0.               0.               0.               0.           
      557:mpfet               1.4806k          1.4806k          0.               0.               0.               0.           
      558:mnfet               1.2956k          1.2956k          0.               0.               0.               0.           
      559:mpfet               1.4806k          1.4806k          0.               0.               0.               0.           
      560:mnfet               1.2956k          1.2956k          0.               0.               0.               0.           
      561:mpfet               1.4806k          1.4806k          0.               0.               0.               0.           
      562:mnfet               1.2956k          1.2956k          0.               0.               0.               0.           
      563:mpfet               1.4806k          1.4806k          0.               0.               0.               0.           
      564:mnfet               1.2956k          1.2956k          0.               0.               0.               0.           
      565:mpfet               1.4806k          1.4806k          0.               0.               0.               0.           
      566:mnfet               1.2956k          1.2956k          0.               0.               0.               0.           
      567:mpfet               1.4806k          1.4806k          0.               0.               0.               0.           
      568:mnfet               1.2956k          1.2956k          0.               0.               0.               0.           
      569:mpfet               1.4806k          1.4806k          0.               0.               0.               0.           
      570:mnfet               1.2956k          1.2956k          0.               0.               0.               0.           
      571:mpfet               1.4806k          1.4806k          0.               0.               0.               0.           
      572:mnfet               1.2956k          1.2956k          0.               0.               0.               0.           
      573:mpfet               1.4806k          1.4806k          0.               0.               0.               0.           
      574:mnfet               1.2956k          1.2956k          0.               0.               0.               0.           
      575:mpfet               1.4806k          1.4806k          0.               0.               0.               0.           
      576:mnfet               1.2956k          1.2956k          0.               0.               0.               0.           
      577:mpfet               1.4806k          1.4806k          0.               0.               0.               0.           
      578:mnfet               1.2956k          1.2956k          0.               0.               0.               0.           
      579:mpfet               1.4806k          1.4806k          0.               0.               0.               0.           
      580:mnfet               1.2956k          1.2956k          0.               0.               0.               0.           
      581:mpfet               1.4806k          1.4806k          0.               0.               0.               0.           
      582:mnfet               1.2956k          1.2956k          0.               0.               0.               0.           
      583:mpfet               1.4806k          1.4806k          0.               0.               0.               0.           
      584:mnfet               1.2956k          1.2956k          0.               0.               0.               0.           
      585:mpfet               1.4806k          1.4806k          0.               0.               0.               0.           
      586:mnfet               1.2956k          1.2956k          0.               0.               0.               0.           
      587:mpfet               1.4806k          1.4806k          0.               0.               0.               0.           
      588:mnfet               1.2956k          1.2956k          0.               0.               0.               0.           
      589:mpfet               1.4806k          1.4806k          0.               0.               0.               0.           
      590:mnfet               1.2956k          1.2956k          0.               0.               0.               0.           
      591:mpfet               1.4806k          1.4806k          0.               0.               0.               0.           
      592:mnfet               1.2956k          1.2956k          0.               0.               0.               0.           
      593:mpfet               1.4806k          1.4806k          0.               0.               0.               0.           
      594:mnfet               1.2956k          1.2956k          0.               0.               0.               0.           
      595:mpfet               1.4806k          1.4806k          0.               0.               0.               0.           
      596:mnfet               1.2956k          1.2956k          0.               0.               0.               0.           
      597:mpfet               1.4806k          1.4806k          0.               0.               0.               0.           
      598:mnfet               1.2956k          1.2956k          0.               0.               0.               0.           
      599:mpfet               1.4806k          1.4806k          0.               0.               0.               0.           
      600:mnfet               1.2956k          1.2956k          0.               0.               0.               0.           
      601:mpfet               1.4806k          1.4806k          0.               0.               0.               0.           
      602:mnfet               1.2956k          1.2956k          0.               0.               0.               0.           
      603:mpfet               1.4806k          1.4806k          0.               0.               0.               0.           
      604:mnfet               1.2956k          1.2956k          0.               0.               0.               0.           
1****** HSPICE -- J-2014.09-2 64-BIT (Oct 22 2014) win64 ******                 
 ******  
 lfsp

 ****** operating point information tnom=  25.000 temp=  35.000 ******
 ****** operating point status is voltage   simulation time is     0.     
      node    =voltage        node    =voltage        node    =voltage

 +  0:clk_1   =  58.1998n   0:clk_10  =  58.1998n   0:clk_11  =  58.1998n
 +  0:clk_12  =  58.1998n   0:clk_13  =  58.1998n   0:clk_14  =  58.1998n
 +  0:clk_15  =  58.1998n   0:clk_16  =  58.1998n   0:clk_2   =  58.1998n
 +  0:clk_3   =  58.1998n   0:clk_4   =  58.1998n   0:clk_5   =  58.1998n
 +  0:clk_6   =  58.1998n   0:clk_7   =  58.1998n   0:clk_8   =  58.1998n
 +  0:clk_9   =  58.1998n   0:clk_in  =   0.        0:clk_temp=  58.2895n
 +  0:clk_temp=  58.2895n   0:clk_temp=  58.2895n   0:clk_temp=  58.2895n
 +  0:d       = 749.9998m   0:init    = 750.0000m   0:load_in = 749.9995m
 +  0:load_out=  58.1084n   0:q1      = 749.9998m   0:q10     = 749.9998m
 +  0:q11     = 749.9998m   0:q12     = 749.9998m   0:q13     = 749.9997m
 +  0:q14     = 749.9998m   0:q15     = 749.9997m   0:q2      = 749.9998m
 +  0:q3      = 749.9998m   0:q4      = 749.9997m   0:q5      = 749.9998m
 +  0:q6      = 749.9998m   0:q7      = 749.9998m   0:q8      = 749.9998m
 +  0:q9      = 749.9998m   0:temp_1  = 213.3213n   0:temp_2  = 749.9996m
 +  0:temp_3  = 213.2315n   0:vdd_clk = 750.0000m   0:vdd_desi= 750.0000m
 +  0:vdd_load= 750.0000m   0:vss_com =   0.        2:out_int = 749.9999m
 +  3:out_int = 749.9999m   4:out_int = 749.9999m   5:out_int = 749.9999m
 +  6:out_int = 749.9999m   7:n1      = 348.7248n   7:n2      = 749.9999m
 +  7:n3      = 232.7089n   7:n4      = 749.9999m   7:n5      = 749.9999m
 +  7:node_1  =  58.1573n   7:node_2  = 204.3098n   7:node_3  = 749.9999m
 +  7:node_4  = 404.9905n   7:node_5  =  29.9475n   7:node_6  = 750.0000m
 +  7:node_7  = 146.3019n   8:n1      = 348.7248n   8:n2      = 749.9999m
 +  8:n3      = 232.7089n   8:n4      = 749.9999m   8:n5      = 749.9999m
 +  8:node_1  =  58.1573n   8:node_2  = 204.3098n   8:node_3  = 749.9999m
 +  8:node_4  = 404.9905n   8:node_5  =  29.9475n   8:node_6  = 750.0000m
 +  8:node_7  = 146.3019n   9:n1      = 348.7248n   9:n2      = 749.9999m
 +  9:n3      = 232.7089n   9:n4      = 749.9999m   9:n5      = 749.9999m
 +  9:node_1  =  58.1573n   9:node_2  = 204.3098n   9:node_3  = 749.9999m
 +  9:node_4  = 404.9905n   9:node_5  =  29.9475n   9:node_6  = 750.0000m
 +  9:node_7  = 146.3019n  10:n1      = 348.7248n  10:n2      = 749.9999m
 + 10:n3      = 232.7089n  10:n4      = 749.9999m  10:n5      = 749.9999m
 + 10:node_1  =  58.1573n  10:node_2  = 204.3098n  10:node_3  = 749.9999m
 + 10:node_4  = 404.9905n  10:node_5  =  29.9475n  10:node_6  = 750.0000m
 + 10:node_7  = 146.3019n  11:n1      = 348.7248n  11:n2      = 749.9999m
 + 11:n3      = 232.7089n  11:n4      = 749.9999m  11:n5      = 749.9999m
 + 11:node_1  =  58.1574n  11:node_2  = 204.3097n  11:node_3  = 749.9999m
 + 11:node_4  = 404.9904n  11:node_5  =  29.9475n  11:node_6  = 750.0000m
 + 11:node_7  = 146.3019n  12:n1      = 348.7248n  12:n2      = 749.9999m
 + 12:n3      = 232.7089n  12:n4      = 749.9999m  12:n5      = 749.9999m
 + 12:node_1  =  58.1573n  12:node_2  = 204.3098n  12:node_3  = 749.9999m
 + 12:node_4  = 404.9905n  12:node_5  =  29.9475n  12:node_6  = 750.0000m
 + 12:node_7  = 146.3019n  13:n1      = 348.7248n  13:n2      = 749.9999m
 + 13:n3      = 232.7089n  13:n4      = 749.9999m  13:n5      = 749.9999m
 + 13:node_1  =  58.1573n  13:node_2  = 204.3098n  13:node_3  = 749.9999m
 + 13:node_4  = 404.9905n  13:node_5  =  29.9475n  13:node_6  = 750.0000m
 + 13:node_7  = 146.3019n  14:n1      = 348.7248n  14:n2      = 749.9999m
 + 14:n3      = 232.7089n  14:n4      = 749.9999m  14:n5      = 749.9999m
 + 14:node_1  =  58.1573n  14:node_2  = 204.3098n  14:node_3  = 749.9999m
 + 14:node_4  = 404.9905n  14:node_5  =  29.9475n  14:node_6  = 750.0000m
 + 14:node_7  = 146.3019n  15:n1      = 348.7248n  15:n2      = 749.9999m
 + 15:n3      = 232.7089n  15:n4      = 749.9999m  15:n5      = 749.9999m
 + 15:node_1  =  58.1573n  15:node_2  = 204.3098n  15:node_3  = 749.9999m
 + 15:node_4  = 404.9905n  15:node_5  =  29.9475n  15:node_6  = 750.0000m
 + 15:node_7  = 146.3019n  16:n1      = 348.7248n  16:n2      = 749.9999m
 + 16:n3      = 232.7089n  16:n4      = 749.9999m  16:n5      = 749.9999m
 + 16:node_1  =  58.1573n  16:node_2  = 204.3098n  16:node_3  = 749.9999m
 + 16:node_4  = 404.9905n  16:node_5  =  29.9475n  16:node_6  = 750.0000m
 + 16:node_7  = 146.3019n  17:n1      = 348.7248n  17:n2      = 749.9999m
 + 17:n3      = 232.7089n  17:n4      = 749.9999m  17:n5      = 749.9999m
 + 17:node_1  =  58.1573n  17:node_2  = 204.3098n  17:node_3  = 749.9999m
 + 17:node_4  = 404.9905n  17:node_5  =  29.9475n  17:node_6  = 750.0000m
 + 17:node_7  = 146.3019n  18:n1      = 348.7248n  18:n2      = 749.9999m
 + 18:n3      = 232.7089n  18:n4      = 749.9999m  18:n5      = 749.9999m
 + 18:node_1  =  58.1573n  18:node_2  = 204.3098n  18:node_3  = 749.9999m
 + 18:node_4  = 404.9905n  18:node_5  =  29.9475n  18:node_6  = 750.0000m
 + 18:node_7  = 146.3019n  19:n1      = 348.7248n  19:n2      = 749.9999m
 + 19:n3      = 232.7089n  19:n4      = 749.9999m  19:n5      = 749.9999m
 + 19:node_1  =  58.1573n  19:node_2  = 204.3098n  19:node_3  = 749.9999m
 + 19:node_4  = 404.9905n  19:node_5  =  29.9475n  19:node_6  = 750.0000m
 + 19:node_7  = 146.3019n  20:n1      = 348.7248n  20:n2      = 749.9999m
 + 20:n3      = 232.7089n  20:n4      = 749.9999m  20:n5      = 749.9999m
 + 20:node_1  =  58.1574n  20:node_2  = 204.3097n  20:node_3  = 749.9999m
 + 20:node_4  = 404.9904n  20:node_5  =  29.9475n  20:node_6  = 750.0000m
 + 20:node_7  = 146.3019n  21:n1      = 348.7248n  21:n2      = 749.9999m
 + 21:n3      = 232.7089n  21:n4      = 749.9999m  21:n5      = 749.9999m
 + 21:node_1  =  58.1573n  21:node_2  = 204.3098n  21:node_3  = 749.9999m
 + 21:node_4  = 404.9905n  21:node_5  =  29.9475n  21:node_6  = 750.0000m
 + 21:node_7  = 146.3019n  22:n1      = 348.7248n  22:n2      = 749.9999m
 + 22:n3      = 232.7089n  22:n4      = 749.9999m  22:n5      = 749.9999m
 + 22:node_1  =  58.1574n  22:node_2  = 204.3097n  22:node_3  = 749.9999m
 + 22:node_4  = 404.9904n  22:node_5  =  29.9475n  22:node_6  = 750.0000m
 + 22:node_7  = 146.3019n  23:node_1  = 691.5545m  23:node_2  =  75.6194m
 + 23:node_3  = 136.6080n  23:s       =  31.9581n  24:node_1  = 750.0000m
 + 24:node_2  = 749.9998m  24:node_3  =  56.2660n  24:s       =  58.1550n
 + 25:node_1  = 691.5545m  25:node_2  =  75.6194m  25:node_3  = 136.5631n
 + 25:s       =  31.9581n  26:node_1  = 750.0000m  26:s       =  58.1547n

 ******  
 lfsp

 ****** transient analysis tnom=  25.000 temp=  35.000 ******
 avg_p_vdd_design=-224.9691n  from=   0.          to=   4.0000u
 avg_p_vdd_clk=-238.4236n  from=   0.          to=   4.0000u

          ***** job concluded
1****** HSPICE -- J-2014.09-2 64-BIT (Oct 22 2014) win64 ******                 
 ******  
 lfsp

 ****** job statistics summary tnom=  25.000 temp=  35.000 ******

  ******  HSPICE Threads Information  ******

  Command Line Threads Count :     2
  Available CPU Count        :     4
  Actual Threads Count       :     2


  ******  Circuit Statistics  ******
  # nodes       =    1267 # elements   =     510
  # resistors   =       0 # capacitors =       0 # inductors   =       0
  # mutual_inds =       0 # vccs       =       0 # vcvs        =       0
  # cccs        =       0 # ccvs       =       0 # volt_srcs   =       6
  # curr_srcs   =       0 # diodes     =       0 # bjts        =       0
  # jfets       =       0 # mosfets    =     504 # U elements  =       0
  # T elements  =       0 # W elements =       0 # B elements  =       0
  # S elements  =       0 # P elements =       0 # va device   =       0
  # vector_srcs =       0 # N elements =       0


  ******  Runtime Statistics (seconds)  ******

  analysis           time    # points   tot. iter  conv.iter
  op point           0.05           1          18
  transient        138.08        4001      135712       28978 rev=       572
  readin             0.03
  errchk             0.12
  setup              0.01
  output             0.00


           peak memory used         54.77 megabytes
           total cpu time          138.30 seconds
           total elapsed time      138.35 seconds
           job started at     22:53:07 05/21/2022
           job ended   at     22:55:25 05/21/2022


  lic: Release hspice token(s) 
 lic: total license checkout elapse time:        0.05(s)
