 ****** HSPICE -- J-2014.09-2 64-BIT (Oct 22 2014) win64 ******                 
  Copyright (C) 2014 Synopsys, Inc. All Rights Reserved.                        
  Unpublished-rights reserved under US copyright laws.
  This program is protected by law and is subject to the
  terms and conditions of the license agreement from Synopsys.
  Use of this program is your acceptance to be bound by the
  license agreement. HSPICE is the trademark of Synopsys, Inc.
  Input File: lfsr.sp                                                           
  Command line options: -mt 3 -i lfsr.sp -o lfsr.lis
  lic:  
  lic: FLEXlm: v10.9.8 
  lic: USER:   渣渣基            HOSTNAME: DESKTOP-NPIU9RN 
  lic: HOSTID: "f430b9ae4e60 005056c00001 005056c00008 5413792f7072 00ff4a66f477
  00ffbbf96e68 00ffd5f
  lic: Using FLEXlm license file: 
  lic: 27000@DESKTOP-NPIU9RN 
  lic: Checkout 1 hspice 
  lic: License/Maintenance for hspice will expire on 30-dec-2030/2019.2019 
  lic: 1(in_use)/99(total) FLOATING license(s) on SERVER 27000@DESKTOP-NPIU9RN 
  lic:   
 Init: read install configuration file: C:\synopsys\Hspice_J-2014.09-2\meta.cfg
  **warning** (../PTM-MG/modelfiles\../modelfiles/lstp/10nfet.pm:4) Model nfet device geometries will not be checked against the limits set by lmin, lmax, nfinmin and nfinmax. To enable this check, add a period(.) to the model name(i.e. enable model selector).
  **info**  the obsolete option acct is ignored
 scientific notation:
 a=10**-18  f=10**-15  p=10**-12  n=10**-9  u=10**-6
 m=10**-3   k=10**3    x=10**6    g=10**9 
1****** HSPICE -- J-2014.09-2 64-BIT (Oct 22 2014) win64 ******                 
 ******  
 lfsp

 ****** circuit name directory
 circuit number to circuit name directory
   number circuitname                     definition         multiplier
        0 main circuit
        1 xinv_size_4.                    inv_size_4         1.00 
        2 xbuffer_1.                      buffer             1.00 
        3 xbuffer_2_1.                    buffer             1.00 
        4 xbuffer_2_2.                    buffer             1.00 
        5 xbuffer_2_3.                    buffer             1.00 
        6 xbuffer_2_4.                    buffer             1.00 
        7 xff_1.                          tgff               1.00 
        8 xff_2.                          tgff               1.00 
        9 xff_3.                          tgff               1.00 
       10 xff_4.                          tgff               1.00 
       11 xff_5.                          tgff               1.00 
       12 xff_6.                          tgff               1.00 
       13 xff_7.                          tgff               1.00 
       14 xff_8.                          tgff               1.00 
       15 xff_9.                          tgff               1.00 
       16 xff_10.                         tgff               1.00 
       17 xff_11.                         tgff               1.00 
       18 xff_12.                         tgff               1.00 
       19 xff_13.                         tgff               1.00 
       20 xff_14.                         tgff               1.00 
       21 xff_15.                         tgff               1.00 
       22 xff_16.                         tgff               1.00 
       23 xxor_1.                         xor                1.00 
       24 xxor_2.                         xor                1.00 
       25 xxor_3.                         xor                1.00 
       26 xor2.                           or2                1.00 
       27 xinv_size_4.xpfet.              pfet               1.00 
       28 xinv_size_4.xnfet.              nfet               1.00 
       29 xbuffer_1.xinv_size_4_in.       inv_size_4         1.00 
       30 xbuffer_1.xinv_size_1_out_1.    inv_size_1         1.00 
       31 xbuffer_1.xinv_size_1_out_2.    inv_size_1         1.00 
       32 xbuffer_1.xinv_size_1_out_3.    inv_size_1         1.00 
       33 xbuffer_1.xinv_size_1_out_4.    inv_size_1         1.00 
       34 xbuffer_2_1.xinv_size_4_in.     inv_size_4         1.00 
       35 xbuffer_2_1.xinv_size_1_out_1.  inv_size_1         1.00 
       36 xbuffer_2_1.xinv_size_1_out_2.  inv_size_1         1.00 
       37 xbuffer_2_1.xinv_size_1_out_3.  inv_size_1         1.00 
       38 xbuffer_2_1.xinv_size_1_out_4.  inv_size_1         1.00 
       39 xbuffer_2_2.xinv_size_4_in.     inv_size_4         1.00 
       40 xbuffer_2_2.xinv_size_1_out_1.  inv_size_1         1.00 
       41 xbuffer_2_2.xinv_size_1_out_2.  inv_size_1         1.00 
       42 xbuffer_2_2.xinv_size_1_out_3.  inv_size_1         1.00 
       43 xbuffer_2_2.xinv_size_1_out_4.  inv_size_1         1.00 
       44 xbuffer_2_3.xinv_size_4_in.     inv_size_4         1.00 
       45 xbuffer_2_3.xinv_size_1_out_1.  inv_size_1         1.00 
       46 xbuffer_2_3.xinv_size_1_out_2.  inv_size_1         1.00 
       47 xbuffer_2_3.xinv_size_1_out_3.  inv_size_1         1.00 
       48 xbuffer_2_3.xinv_size_1_out_4.  inv_size_1         1.00 
       49 xbuffer_2_4.xinv_size_4_in.     inv_size_4         1.00 
       50 xbuffer_2_4.xinv_size_1_out_1.  inv_size_1         1.00 
       51 xbuffer_2_4.xinv_size_1_out_2.  inv_size_1         1.00 
       52 xbuffer_2_4.xinv_size_1_out_3.  inv_size_1         1.00 
       53 xbuffer_2_4.xinv_size_1_out_4.  inv_size_1         1.00 
       54 xff_1.xinv_1.                   inv_size_1         1.00 
       55 xff_1.xinv_2.                   inv_size_1         1.00 
       56 xff_1.xinv_3.                   inv_size_1         1.00 
       57 xff_1.xtg_1.                    tg                 1.00 
       58 xff_1.xinv_4.                   inv_size_1         1.00 
       59 xff_1.xinv_5.                   inv_size_1         1.00 
       60 xff_1.xtg_2.                    tg                 1.00 
       61 xff_1.xtg_3.                    tg                 1.00 
       62 xff_1.xinv_6.                   inv_size_1         1.00 
       63 xff_1.xinv_7.                   inv_size_1         1.00 
       64 xff_1.xinv_8.                   inv_size_1         1.00 
       65 xff_1.xtg_4.                    tg                 1.00 
       66 xff_2.xinv_1.                   inv_size_1         1.00 
       67 xff_2.xinv_2.                   inv_size_1         1.00 
       68 xff_2.xinv_3.                   inv_size_1         1.00 
       69 xff_2.xtg_1.                    tg                 1.00 
       70 xff_2.xinv_4.                   inv_size_1         1.00 
       71 xff_2.xinv_5.                   inv_size_1         1.00 
       72 xff_2.xtg_2.                    tg                 1.00 
       73 xff_2.xtg_3.                    tg                 1.00 
       74 xff_2.xinv_6.                   inv_size_1         1.00 
       75 xff_2.xinv_7.                   inv_size_1         1.00 
       76 xff_2.xinv_8.                   inv_size_1         1.00 
       77 xff_2.xtg_4.                    tg                 1.00 
       78 xff_3.xinv_1.                   inv_size_1         1.00 
       79 xff_3.xinv_2.                   inv_size_1         1.00 
       80 xff_3.xinv_3.                   inv_size_1         1.00 
       81 xff_3.xtg_1.                    tg                 1.00 
       82 xff_3.xinv_4.                   inv_size_1         1.00 
       83 xff_3.xinv_5.                   inv_size_1         1.00 
       84 xff_3.xtg_2.                    tg                 1.00 
       85 xff_3.xtg_3.                    tg                 1.00 
       86 xff_3.xinv_6.                   inv_size_1         1.00 
       87 xff_3.xinv_7.                   inv_size_1         1.00 
       88 xff_3.xinv_8.                   inv_size_1         1.00 
       89 xff_3.xtg_4.                    tg                 1.00 
       90 xff_4.xinv_1.                   inv_size_1         1.00 
       91 xff_4.xinv_2.                   inv_size_1         1.00 
       92 xff_4.xinv_3.                   inv_size_1         1.00 
       93 xff_4.xtg_1.                    tg                 1.00 
       94 xff_4.xinv_4.                   inv_size_1         1.00 
       95 xff_4.xinv_5.                   inv_size_1         1.00 
       96 xff_4.xtg_2.                    tg                 1.00 
       97 xff_4.xtg_3.                    tg                 1.00 
       98 xff_4.xinv_6.                   inv_size_1         1.00 
       99 xff_4.xinv_7.                   inv_size_1         1.00 
      100 xff_4.xinv_8.                   inv_size_1         1.00 
      101 xff_4.xtg_4.                    tg                 1.00 
      102 xff_5.xinv_1.                   inv_size_1         1.00 
      103 xff_5.xinv_2.                   inv_size_1         1.00 
      104 xff_5.xinv_3.                   inv_size_1         1.00 
      105 xff_5.xtg_1.                    tg                 1.00 
      106 xff_5.xinv_4.                   inv_size_1         1.00 
      107 xff_5.xinv_5.                   inv_size_1         1.00 
      108 xff_5.xtg_2.                    tg                 1.00 
      109 xff_5.xtg_3.                    tg                 1.00 
      110 xff_5.xinv_6.                   inv_size_1         1.00 
      111 xff_5.xinv_7.                   inv_size_1         1.00 
      112 xff_5.xinv_8.                   inv_size_1         1.00 
      113 xff_5.xtg_4.                    tg                 1.00 
      114 xff_6.xinv_1.                   inv_size_1         1.00 
      115 xff_6.xinv_2.                   inv_size_1         1.00 
      116 xff_6.xinv_3.                   inv_size_1         1.00 
      117 xff_6.xtg_1.                    tg                 1.00 
      118 xff_6.xinv_4.                   inv_size_1         1.00 
      119 xff_6.xinv_5.                   inv_size_1         1.00 
      120 xff_6.xtg_2.                    tg                 1.00 
      121 xff_6.xtg_3.                    tg                 1.00 
      122 xff_6.xinv_6.                   inv_size_1         1.00 
      123 xff_6.xinv_7.                   inv_size_1         1.00 
      124 xff_6.xinv_8.                   inv_size_1         1.00 
      125 xff_6.xtg_4.                    tg                 1.00 
      126 xff_7.xinv_1.                   inv_size_1         1.00 
      127 xff_7.xinv_2.                   inv_size_1         1.00 
      128 xff_7.xinv_3.                   inv_size_1         1.00 
      129 xff_7.xtg_1.                    tg                 1.00 
      130 xff_7.xinv_4.                   inv_size_1         1.00 
      131 xff_7.xinv_5.                   inv_size_1         1.00 
      132 xff_7.xtg_2.                    tg                 1.00 
      133 xff_7.xtg_3.                    tg                 1.00 
      134 xff_7.xinv_6.                   inv_size_1         1.00 
      135 xff_7.xinv_7.                   inv_size_1         1.00 
      136 xff_7.xinv_8.                   inv_size_1         1.00 
      137 xff_7.xtg_4.                    tg                 1.00 
      138 xff_8.xinv_1.                   inv_size_1         1.00 
      139 xff_8.xinv_2.                   inv_size_1         1.00 
      140 xff_8.xinv_3.                   inv_size_1         1.00 
      141 xff_8.xtg_1.                    tg                 1.00 
      142 xff_8.xinv_4.                   inv_size_1         1.00 
      143 xff_8.xinv_5.                   inv_size_1         1.00 
      144 xff_8.xtg_2.                    tg                 1.00 
      145 xff_8.xtg_3.                    tg                 1.00 
      146 xff_8.xinv_6.                   inv_size_1         1.00 
      147 xff_8.xinv_7.                   inv_size_1         1.00 
      148 xff_8.xinv_8.                   inv_size_1         1.00 
      149 xff_8.xtg_4.                    tg                 1.00 
      150 xff_9.xinv_1.                   inv_size_1         1.00 
      151 xff_9.xinv_2.                   inv_size_1         1.00 
      152 xff_9.xinv_3.                   inv_size_1         1.00 
      153 xff_9.xtg_1.                    tg                 1.00 
      154 xff_9.xinv_4.                   inv_size_1         1.00 
      155 xff_9.xinv_5.                   inv_size_1         1.00 
      156 xff_9.xtg_2.                    tg                 1.00 
      157 xff_9.xtg_3.                    tg                 1.00 
      158 xff_9.xinv_6.                   inv_size_1         1.00 
      159 xff_9.xinv_7.                   inv_size_1         1.00 
      160 xff_9.xinv_8.                   inv_size_1         1.00 
      161 xff_9.xtg_4.                    tg                 1.00 
      162 xff_10.xinv_1.                  inv_size_1         1.00 
      163 xff_10.xinv_2.                  inv_size_1         1.00 
      164 xff_10.xinv_3.                  inv_size_1         1.00 
      165 xff_10.xtg_1.                   tg                 1.00 
      166 xff_10.xinv_4.                  inv_size_1         1.00 
      167 xff_10.xinv_5.                  inv_size_1         1.00 
      168 xff_10.xtg_2.                   tg                 1.00 
      169 xff_10.xtg_3.                   tg                 1.00 
      170 xff_10.xinv_6.                  inv_size_1         1.00 
      171 xff_10.xinv_7.                  inv_size_1         1.00 
      172 xff_10.xinv_8.                  inv_size_1         1.00 
      173 xff_10.xtg_4.                   tg                 1.00 
      174 xff_11.xinv_1.                  inv_size_1         1.00 
      175 xff_11.xinv_2.                  inv_size_1         1.00 
      176 xff_11.xinv_3.                  inv_size_1         1.00 
      177 xff_11.xtg_1.                   tg                 1.00 
      178 xff_11.xinv_4.                  inv_size_1         1.00 
      179 xff_11.xinv_5.                  inv_size_1         1.00 
      180 xff_11.xtg_2.                   tg                 1.00 
      181 xff_11.xtg_3.                   tg                 1.00 
      182 xff_11.xinv_6.                  inv_size_1         1.00 
      183 xff_11.xinv_7.                  inv_size_1         1.00 
      184 xff_11.xinv_8.                  inv_size_1         1.00 
      185 xff_11.xtg_4.                   tg                 1.00 
      186 xff_12.xinv_1.                  inv_size_1         1.00 
      187 xff_12.xinv_2.                  inv_size_1         1.00 
      188 xff_12.xinv_3.                  inv_size_1         1.00 
      189 xff_12.xtg_1.                   tg                 1.00 
      190 xff_12.xinv_4.                  inv_size_1         1.00 
      191 xff_12.xinv_5.                  inv_size_1         1.00 
      192 xff_12.xtg_2.                   tg                 1.00 
      193 xff_12.xtg_3.                   tg                 1.00 
      194 xff_12.xinv_6.                  inv_size_1         1.00 
      195 xff_12.xinv_7.                  inv_size_1         1.00 
      196 xff_12.xinv_8.                  inv_size_1         1.00 
      197 xff_12.xtg_4.                   tg                 1.00 
      198 xff_13.xinv_1.                  inv_size_1         1.00 
      199 xff_13.xinv_2.                  inv_size_1         1.00 
      200 xff_13.xinv_3.                  inv_size_1         1.00 
      201 xff_13.xtg_1.                   tg                 1.00 
      202 xff_13.xinv_4.                  inv_size_1         1.00 
      203 xff_13.xinv_5.                  inv_size_1         1.00 
      204 xff_13.xtg_2.                   tg                 1.00 
      205 xff_13.xtg_3.                   tg                 1.00 
      206 xff_13.xinv_6.                  inv_size_1         1.00 
      207 xff_13.xinv_7.                  inv_size_1         1.00 
      208 xff_13.xinv_8.                  inv_size_1         1.00 
      209 xff_13.xtg_4.                   tg                 1.00 
      210 xff_14.xinv_1.                  inv_size_1         1.00 
      211 xff_14.xinv_2.                  inv_size_1         1.00 
      212 xff_14.xinv_3.                  inv_size_1         1.00 
      213 xff_14.xtg_1.                   tg                 1.00 
      214 xff_14.xinv_4.                  inv_size_1         1.00 
      215 xff_14.xinv_5.                  inv_size_1         1.00 
      216 xff_14.xtg_2.                   tg                 1.00 
      217 xff_14.xtg_3.                   tg                 1.00 
      218 xff_14.xinv_6.                  inv_size_1         1.00 
      219 xff_14.xinv_7.                  inv_size_1         1.00 
      220 xff_14.xinv_8.                  inv_size_1         1.00 
      221 xff_14.xtg_4.                   tg                 1.00 
      222 xff_15.xinv_1.                  inv_size_1         1.00 
      223 xff_15.xinv_2.                  inv_size_1         1.00 
      224 xff_15.xinv_3.                  inv_size_1         1.00 
      225 xff_15.xtg_1.                   tg                 1.00 
      226 xff_15.xinv_4.                  inv_size_1         1.00 
      227 xff_15.xinv_5.                  inv_size_1         1.00 
      228 xff_15.xtg_2.                   tg                 1.00 
      229 xff_15.xtg_3.                   tg                 1.00 
      230 xff_15.xinv_6.                  inv_size_1         1.00 
      231 xff_15.xinv_7.                  inv_size_1         1.00 
      232 xff_15.xinv_8.                  inv_size_1         1.00 
      233 xff_15.xtg_4.                   tg                 1.00 
      234 xff_16.xinv_1.                  inv_size_1         1.00 
      235 xff_16.xinv_2.                  inv_size_1         1.00 
      236 xff_16.xinv_3.                  inv_size_1         1.00 
      237 xff_16.xtg_1.                   tg                 1.00 
      238 xff_16.xinv_4.                  inv_size_1         1.00 
      239 xff_16.xinv_5.                  inv_size_1         1.00 
      240 xff_16.xtg_2.                   tg                 1.00 
      241 xff_16.xtg_3.                   tg                 1.00 
      242 xff_16.xinv_6.                  inv_size_1         1.00 
      243 xff_16.xinv_7.                  inv_size_1         1.00 
      244 xff_16.xinv_8.                  inv_size_1         1.00 
      245 xff_16.xtg_4.                   tg                 1.00 
      246 xxor_1.xpfet_1.                 pfet               1.00 
      247 xxor_1.xpfet_2.                 pfet               1.00 
      248 xxor_1.xnfet_1.                 nfet               1.00 
      249 xxor_1.xnfet_2.                 nfet               1.00 
      250 xxor_1.xpfet_3.                 pfet               1.00 
      251 xxor_1.xpfet_4.                 pfet               1.00 
      252 xxor_1.xpfet_5.                 pfet               1.00 
      253 xxor_1.xnfet_3.                 nfet               1.00 
      254 xxor_1.xnfet_4.                 nfet               1.00 
      255 xxor_1.xnfet_5.                 nfet               1.00 
      256 xxor_2.xpfet_1.                 pfet               1.00 
      257 xxor_2.xpfet_2.                 pfet               1.00 
      258 xxor_2.xnfet_1.                 nfet               1.00 
      259 xxor_2.xnfet_2.                 nfet               1.00 
      260 xxor_2.xpfet_3.                 pfet               1.00 
      261 xxor_2.xpfet_4.                 pfet               1.00 
      262 xxor_2.xpfet_5.                 pfet               1.00 
      263 xxor_2.xnfet_3.                 nfet               1.00 
      264 xxor_2.xnfet_4.                 nfet               1.00 
      265 xxor_2.xnfet_5.                 nfet               1.00 
      266 xxor_3.xpfet_1.                 pfet               1.00 
      267 xxor_3.xpfet_2.                 pfet               1.00 
      268 xxor_3.xnfet_1.                 nfet               1.00 
      269 xxor_3.xnfet_2.                 nfet               1.00 
      270 xxor_3.xpfet_3.                 pfet               1.00 
      271 xxor_3.xpfet_4.                 pfet               1.00 
      272 xxor_3.xpfet_5.                 pfet               1.00 
      273 xxor_3.xnfet_3.                 nfet               1.00 
      274 xxor_3.xnfet_4.                 nfet               1.00 
      275 xxor_3.xnfet_5.                 nfet               1.00 
      276 xor2.xpfet_1.                   pfet               1.00 
      277 xor2.xpfet_2.                   pfet               1.00 
      278 xor2.xnfet_1.                   nfet               1.00 
      279 xor2.xnfet_2.                   nfet               1.00 
      280 xor2.xinv_size_1.               inv_size_1         1.00 
      281 xbuffer_1.xinv_size_4_in.xpfet. pfet               1.00 
      282 xbuffer_1.xinv_size_4_in.xnfet. nfet               1.00 
      283 xbuffer_1.xinv_size_1_out_1.xpfet.
                                            pfet               1.00 
      284 xbuffer_1.xinv_size_1_out_1.xnfet.
                                            nfet               1.00 
      285 xbuffer_1.xinv_size_1_out_2.xpfet.
                                            pfet               1.00 
      286 xbuffer_1.xinv_size_1_out_2.xnfet.
                                            nfet               1.00 
      287 xbuffer_1.xinv_size_1_out_3.xpfet.
                                            pfet               1.00 
      288 xbuffer_1.xinv_size_1_out_3.xnfet.
                                            nfet               1.00 
      289 xbuffer_1.xinv_size_1_out_4.xpfet.
                                            pfet               1.00 
      290 xbuffer_1.xinv_size_1_out_4.xnfet.
                                            nfet               1.00 
      291 xbuffer_2_1.xinv_size_4_in.xpfet.
                                            pfet               1.00 
      292 xbuffer_2_1.xinv_size_4_in.xnfet.
                                            nfet               1.00 
      293 xbuffer_2_1.xinv_size_1_out_1.xpfet.
                                            pfet               1.00 
      294 xbuffer_2_1.xinv_size_1_out_1.xnfet.
                                            nfet               1.00 
      295 xbuffer_2_1.xinv_size_1_out_2.xpfet.
                                            pfet               1.00 
      296 xbuffer_2_1.xinv_size_1_out_2.xnfet.
                                            nfet               1.00 
      297 xbuffer_2_1.xinv_size_1_out_3.xpfet.
                                            pfet               1.00 
      298 xbuffer_2_1.xinv_size_1_out_3.xnfet.
                                            nfet               1.00 
      299 xbuffer_2_1.xinv_size_1_out_4.xpfet.
                                            pfet               1.00 
      300 xbuffer_2_1.xinv_size_1_out_4.xnfet.
                                            nfet               1.00 
      301 xbuffer_2_2.xinv_size_4_in.xpfet.
                                            pfet               1.00 
      302 xbuffer_2_2.xinv_size_4_in.xnfet.
                                            nfet               1.00 
      303 xbuffer_2_2.xinv_size_1_out_1.xpfet.
                                            pfet               1.00 
      304 xbuffer_2_2.xinv_size_1_out_1.xnfet.
                                            nfet               1.00 
      305 xbuffer_2_2.xinv_size_1_out_2.xpfet.
                                            pfet               1.00 
      306 xbuffer_2_2.xinv_size_1_out_2.xnfet.
                                            nfet               1.00 
      307 xbuffer_2_2.xinv_size_1_out_3.xpfet.
                                            pfet               1.00 
      308 xbuffer_2_2.xinv_size_1_out_3.xnfet.
                                            nfet               1.00 
      309 xbuffer_2_2.xinv_size_1_out_4.xpfet.
                                            pfet               1.00 
      310 xbuffer_2_2.xinv_size_1_out_4.xnfet.
                                            nfet               1.00 
      311 xbuffer_2_3.xinv_size_4_in.xpfet.
                                            pfet               1.00 
      312 xbuffer_2_3.xinv_size_4_in.xnfet.
                                            nfet               1.00 
      313 xbuffer_2_3.xinv_size_1_out_1.xpfet.
                                            pfet               1.00 
      314 xbuffer_2_3.xinv_size_1_out_1.xnfet.
                                            nfet               1.00 
      315 xbuffer_2_3.xinv_size_1_out_2.xpfet.
                                            pfet               1.00 
      316 xbuffer_2_3.xinv_size_1_out_2.xnfet.
                                            nfet               1.00 
      317 xbuffer_2_3.xinv_size_1_out_3.xpfet.
                                            pfet               1.00 
      318 xbuffer_2_3.xinv_size_1_out_3.xnfet.
                                            nfet               1.00 
      319 xbuffer_2_3.xinv_size_1_out_4.xpfet.
                                            pfet               1.00 
      320 xbuffer_2_3.xinv_size_1_out_4.xnfet.
                                            nfet               1.00 
      321 xbuffer_2_4.xinv_size_4_in.xpfet.
                                            pfet               1.00 
      322 xbuffer_2_4.xinv_size_4_in.xnfet.
                                            nfet               1.00 
      323 xbuffer_2_4.xinv_size_1_out_1.xpfet.
                                            pfet               1.00 
      324 xbuffer_2_4.xinv_size_1_out_1.xnfet.
                                            nfet               1.00 
      325 xbuffer_2_4.xinv_size_1_out_2.xpfet.
                                            pfet               1.00 
      326 xbuffer_2_4.xinv_size_1_out_2.xnfet.
                                            nfet               1.00 
      327 xbuffer_2_4.xinv_size_1_out_3.xpfet.
                                            pfet               1.00 
      328 xbuffer_2_4.xinv_size_1_out_3.xnfet.
                                            nfet               1.00 
      329 xbuffer_2_4.xinv_size_1_out_4.xpfet.
                                            pfet               1.00 
      330 xbuffer_2_4.xinv_size_1_out_4.xnfet.
                                            nfet               1.00 
      331 xff_1.xinv_1.xpfet.             pfet               1.00 
      332 xff_1.xinv_1.xnfet.             nfet               1.00 
      333 xff_1.xinv_2.xpfet.             pfet               1.00 
      334 xff_1.xinv_2.xnfet.             nfet               1.00 
      335 xff_1.xinv_3.xpfet.             pfet               1.00 
      336 xff_1.xinv_3.xnfet.             nfet               1.00 
      337 xff_1.xtg_1.xpfet.              pfet               1.00 
      338 xff_1.xtg_1.xnfet.              nfet               1.00 
      339 xff_1.xinv_4.xpfet.             pfet               1.00 
      340 xff_1.xinv_4.xnfet.             nfet               1.00 
      341 xff_1.xinv_5.xpfet.             pfet               1.00 
      342 xff_1.xinv_5.xnfet.             nfet               1.00 
      343 xff_1.xtg_2.xpfet.              pfet               1.00 
      344 xff_1.xtg_2.xnfet.              nfet               1.00 
      345 xff_1.xtg_3.xpfet.              pfet               1.00 
      346 xff_1.xtg_3.xnfet.              nfet               1.00 
      347 xff_1.xinv_6.xpfet.             pfet               1.00 
      348 xff_1.xinv_6.xnfet.             nfet               1.00 
      349 xff_1.xinv_7.xpfet.             pfet               1.00 
      350 xff_1.xinv_7.xnfet.             nfet               1.00 
      351 xff_1.xinv_8.xpfet.             pfet               1.00 
      352 xff_1.xinv_8.xnfet.             nfet               1.00 
      353 xff_1.xtg_4.xpfet.              pfet               1.00 
      354 xff_1.xtg_4.xnfet.              nfet               1.00 
      355 xff_2.xinv_1.xpfet.             pfet               1.00 
      356 xff_2.xinv_1.xnfet.             nfet               1.00 
      357 xff_2.xinv_2.xpfet.             pfet               1.00 
      358 xff_2.xinv_2.xnfet.             nfet               1.00 
      359 xff_2.xinv_3.xpfet.             pfet               1.00 
      360 xff_2.xinv_3.xnfet.             nfet               1.00 
      361 xff_2.xtg_1.xpfet.              pfet               1.00 
      362 xff_2.xtg_1.xnfet.              nfet               1.00 
      363 xff_2.xinv_4.xpfet.             pfet               1.00 
      364 xff_2.xinv_4.xnfet.             nfet               1.00 
      365 xff_2.xinv_5.xpfet.             pfet               1.00 
      366 xff_2.xinv_5.xnfet.             nfet               1.00 
      367 xff_2.xtg_2.xpfet.              pfet               1.00 
      368 xff_2.xtg_2.xnfet.              nfet               1.00 
      369 xff_2.xtg_3.xpfet.              pfet               1.00 
      370 xff_2.xtg_3.xnfet.              nfet               1.00 
      371 xff_2.xinv_6.xpfet.             pfet               1.00 
      372 xff_2.xinv_6.xnfet.             nfet               1.00 
      373 xff_2.xinv_7.xpfet.             pfet               1.00 
      374 xff_2.xinv_7.xnfet.             nfet               1.00 
      375 xff_2.xinv_8.xpfet.             pfet               1.00 
      376 xff_2.xinv_8.xnfet.             nfet               1.00 
      377 xff_2.xtg_4.xpfet.              pfet               1.00 
      378 xff_2.xtg_4.xnfet.              nfet               1.00 
      379 xff_3.xinv_1.xpfet.             pfet               1.00 
      380 xff_3.xinv_1.xnfet.             nfet               1.00 
      381 xff_3.xinv_2.xpfet.             pfet               1.00 
      382 xff_3.xinv_2.xnfet.             nfet               1.00 
      383 xff_3.xinv_3.xpfet.             pfet               1.00 
      384 xff_3.xinv_3.xnfet.             nfet               1.00 
      385 xff_3.xtg_1.xpfet.              pfet               1.00 
      386 xff_3.xtg_1.xnfet.              nfet               1.00 
      387 xff_3.xinv_4.xpfet.             pfet               1.00 
      388 xff_3.xinv_4.xnfet.             nfet               1.00 
      389 xff_3.xinv_5.xpfet.             pfet               1.00 
      390 xff_3.xinv_5.xnfet.             nfet               1.00 
      391 xff_3.xtg_2.xpfet.              pfet               1.00 
      392 xff_3.xtg_2.xnfet.              nfet               1.00 
      393 xff_3.xtg_3.xpfet.              pfet               1.00 
      394 xff_3.xtg_3.xnfet.              nfet               1.00 
      395 xff_3.xinv_6.xpfet.             pfet               1.00 
      396 xff_3.xinv_6.xnfet.             nfet               1.00 
      397 xff_3.xinv_7.xpfet.             pfet               1.00 
      398 xff_3.xinv_7.xnfet.             nfet               1.00 
      399 xff_3.xinv_8.xpfet.             pfet               1.00 
      400 xff_3.xinv_8.xnfet.             nfet               1.00 
      401 xff_3.xtg_4.xpfet.              pfet               1.00 
      402 xff_3.xtg_4.xnfet.              nfet               1.00 
      403 xff_4.xinv_1.xpfet.             pfet               1.00 
      404 xff_4.xinv_1.xnfet.             nfet               1.00 
      405 xff_4.xinv_2.xpfet.             pfet               1.00 
      406 xff_4.xinv_2.xnfet.             nfet               1.00 
      407 xff_4.xinv_3.xpfet.             pfet               1.00 
      408 xff_4.xinv_3.xnfet.             nfet               1.00 
      409 xff_4.xtg_1.xpfet.              pfet               1.00 
      410 xff_4.xtg_1.xnfet.              nfet               1.00 
      411 xff_4.xinv_4.xpfet.             pfet               1.00 
      412 xff_4.xinv_4.xnfet.             nfet               1.00 
      413 xff_4.xinv_5.xpfet.             pfet               1.00 
      414 xff_4.xinv_5.xnfet.             nfet               1.00 
      415 xff_4.xtg_2.xpfet.              pfet               1.00 
      416 xff_4.xtg_2.xnfet.              nfet               1.00 
      417 xff_4.xtg_3.xpfet.              pfet               1.00 
      418 xff_4.xtg_3.xnfet.              nfet               1.00 
      419 xff_4.xinv_6.xpfet.             pfet               1.00 
      420 xff_4.xinv_6.xnfet.             nfet               1.00 
      421 xff_4.xinv_7.xpfet.             pfet               1.00 
      422 xff_4.xinv_7.xnfet.             nfet               1.00 
      423 xff_4.xinv_8.xpfet.             pfet               1.00 
      424 xff_4.xinv_8.xnfet.             nfet               1.00 
      425 xff_4.xtg_4.xpfet.              pfet               1.00 
      426 xff_4.xtg_4.xnfet.              nfet               1.00 
      427 xff_5.xinv_1.xpfet.             pfet               1.00 
      428 xff_5.xinv_1.xnfet.             nfet               1.00 
      429 xff_5.xinv_2.xpfet.             pfet               1.00 
      430 xff_5.xinv_2.xnfet.             nfet               1.00 
      431 xff_5.xinv_3.xpfet.             pfet               1.00 
      432 xff_5.xinv_3.xnfet.             nfet               1.00 
      433 xff_5.xtg_1.xpfet.              pfet               1.00 
      434 xff_5.xtg_1.xnfet.              nfet               1.00 
      435 xff_5.xinv_4.xpfet.             pfet               1.00 
      436 xff_5.xinv_4.xnfet.             nfet               1.00 
      437 xff_5.xinv_5.xpfet.             pfet               1.00 
      438 xff_5.xinv_5.xnfet.             nfet               1.00 
      439 xff_5.xtg_2.xpfet.              pfet               1.00 
      440 xff_5.xtg_2.xnfet.              nfet               1.00 
      441 xff_5.xtg_3.xpfet.              pfet               1.00 
      442 xff_5.xtg_3.xnfet.              nfet               1.00 
      443 xff_5.xinv_6.xpfet.             pfet               1.00 
      444 xff_5.xinv_6.xnfet.             nfet               1.00 
      445 xff_5.xinv_7.xpfet.             pfet               1.00 
      446 xff_5.xinv_7.xnfet.             nfet               1.00 
      447 xff_5.xinv_8.xpfet.             pfet               1.00 
      448 xff_5.xinv_8.xnfet.             nfet               1.00 
      449 xff_5.xtg_4.xpfet.              pfet               1.00 
      450 xff_5.xtg_4.xnfet.              nfet               1.00 
      451 xff_6.xinv_1.xpfet.             pfet               1.00 
      452 xff_6.xinv_1.xnfet.             nfet               1.00 
      453 xff_6.xinv_2.xpfet.             pfet               1.00 
      454 xff_6.xinv_2.xnfet.             nfet               1.00 
      455 xff_6.xinv_3.xpfet.             pfet               1.00 
      456 xff_6.xinv_3.xnfet.             nfet               1.00 
      457 xff_6.xtg_1.xpfet.              pfet               1.00 
      458 xff_6.xtg_1.xnfet.              nfet               1.00 
      459 xff_6.xinv_4.xpfet.             pfet               1.00 
      460 xff_6.xinv_4.xnfet.             nfet               1.00 
      461 xff_6.xinv_5.xpfet.             pfet               1.00 
      462 xff_6.xinv_5.xnfet.             nfet               1.00 
      463 xff_6.xtg_2.xpfet.              pfet               1.00 
      464 xff_6.xtg_2.xnfet.              nfet               1.00 
      465 xff_6.xtg_3.xpfet.              pfet               1.00 
      466 xff_6.xtg_3.xnfet.              nfet               1.00 
      467 xff_6.xinv_6.xpfet.             pfet               1.00 
      468 xff_6.xinv_6.xnfet.             nfet               1.00 
      469 xff_6.xinv_7.xpfet.             pfet               1.00 
      470 xff_6.xinv_7.xnfet.             nfet               1.00 
      471 xff_6.xinv_8.xpfet.             pfet               1.00 
      472 xff_6.xinv_8.xnfet.             nfet               1.00 
      473 xff_6.xtg_4.xpfet.              pfet               1.00 
      474 xff_6.xtg_4.xnfet.              nfet               1.00 
      475 xff_7.xinv_1.xpfet.             pfet               1.00 
      476 xff_7.xinv_1.xnfet.             nfet               1.00 
      477 xff_7.xinv_2.xpfet.             pfet               1.00 
      478 xff_7.xinv_2.xnfet.             nfet               1.00 
      479 xff_7.xinv_3.xpfet.             pfet               1.00 
      480 xff_7.xinv_3.xnfet.             nfet               1.00 
      481 xff_7.xtg_1.xpfet.              pfet               1.00 
      482 xff_7.xtg_1.xnfet.              nfet               1.00 
      483 xff_7.xinv_4.xpfet.             pfet               1.00 
      484 xff_7.xinv_4.xnfet.             nfet               1.00 
      485 xff_7.xinv_5.xpfet.             pfet               1.00 
      486 xff_7.xinv_5.xnfet.             nfet               1.00 
      487 xff_7.xtg_2.xpfet.              pfet               1.00 
      488 xff_7.xtg_2.xnfet.              nfet               1.00 
      489 xff_7.xtg_3.xpfet.              pfet               1.00 
      490 xff_7.xtg_3.xnfet.              nfet               1.00 
      491 xff_7.xinv_6.xpfet.             pfet               1.00 
      492 xff_7.xinv_6.xnfet.             nfet               1.00 
      493 xff_7.xinv_7.xpfet.             pfet               1.00 
      494 xff_7.xinv_7.xnfet.             nfet               1.00 
      495 xff_7.xinv_8.xpfet.             pfet               1.00 
      496 xff_7.xinv_8.xnfet.             nfet               1.00 
      497 xff_7.xtg_4.xpfet.              pfet               1.00 
      498 xff_7.xtg_4.xnfet.              nfet               1.00 
      499 xff_8.xinv_1.xpfet.             pfet               1.00 
      500 xff_8.xinv_1.xnfet.             nfet               1.00 
      501 xff_8.xinv_2.xpfet.             pfet               1.00 
      502 xff_8.xinv_2.xnfet.             nfet               1.00 
      503 xff_8.xinv_3.xpfet.             pfet               1.00 
      504 xff_8.xinv_3.xnfet.             nfet               1.00 
      505 xff_8.xtg_1.xpfet.              pfet               1.00 
      506 xff_8.xtg_1.xnfet.              nfet               1.00 
      507 xff_8.xinv_4.xpfet.             pfet               1.00 
      508 xff_8.xinv_4.xnfet.             nfet               1.00 
      509 xff_8.xinv_5.xpfet.             pfet               1.00 
      510 xff_8.xinv_5.xnfet.             nfet               1.00 
      511 xff_8.xtg_2.xpfet.              pfet               1.00 
      512 xff_8.xtg_2.xnfet.              nfet               1.00 
      513 xff_8.xtg_3.xpfet.              pfet               1.00 
      514 xff_8.xtg_3.xnfet.              nfet               1.00 
      515 xff_8.xinv_6.xpfet.             pfet               1.00 
      516 xff_8.xinv_6.xnfet.             nfet               1.00 
      517 xff_8.xinv_7.xpfet.             pfet               1.00 
      518 xff_8.xinv_7.xnfet.             nfet               1.00 
      519 xff_8.xinv_8.xpfet.             pfet               1.00 
      520 xff_8.xinv_8.xnfet.             nfet               1.00 
      521 xff_8.xtg_4.xpfet.              pfet               1.00 
      522 xff_8.xtg_4.xnfet.              nfet               1.00 
      523 xff_9.xinv_1.xpfet.             pfet               1.00 
      524 xff_9.xinv_1.xnfet.             nfet               1.00 
      525 xff_9.xinv_2.xpfet.             pfet               1.00 
      526 xff_9.xinv_2.xnfet.             nfet               1.00 
      527 xff_9.xinv_3.xpfet.             pfet               1.00 
      528 xff_9.xinv_3.xnfet.             nfet               1.00 
      529 xff_9.xtg_1.xpfet.              pfet               1.00 
      530 xff_9.xtg_1.xnfet.              nfet               1.00 
      531 xff_9.xinv_4.xpfet.             pfet               1.00 
      532 xff_9.xinv_4.xnfet.             nfet               1.00 
      533 xff_9.xinv_5.xpfet.             pfet               1.00 
      534 xff_9.xinv_5.xnfet.             nfet               1.00 
      535 xff_9.xtg_2.xpfet.              pfet               1.00 
      536 xff_9.xtg_2.xnfet.              nfet               1.00 
      537 xff_9.xtg_3.xpfet.              pfet               1.00 
      538 xff_9.xtg_3.xnfet.              nfet               1.00 
      539 xff_9.xinv_6.xpfet.             pfet               1.00 
      540 xff_9.xinv_6.xnfet.             nfet               1.00 
      541 xff_9.xinv_7.xpfet.             pfet               1.00 
      542 xff_9.xinv_7.xnfet.             nfet               1.00 
      543 xff_9.xinv_8.xpfet.             pfet               1.00 
      544 xff_9.xinv_8.xnfet.             nfet               1.00 
      545 xff_9.xtg_4.xpfet.              pfet               1.00 
      546 xff_9.xtg_4.xnfet.              nfet               1.00 
      547 xff_10.xinv_1.xpfet.            pfet               1.00 
      548 xff_10.xinv_1.xnfet.            nfet               1.00 
      549 xff_10.xinv_2.xpfet.            pfet               1.00 
      550 xff_10.xinv_2.xnfet.            nfet               1.00 
      551 xff_10.xinv_3.xpfet.            pfet               1.00 
      552 xff_10.xinv_3.xnfet.            nfet               1.00 
      553 xff_10.xtg_1.xpfet.             pfet               1.00 
      554 xff_10.xtg_1.xnfet.             nfet               1.00 
      555 xff_10.xinv_4.xpfet.            pfet               1.00 
      556 xff_10.xinv_4.xnfet.            nfet               1.00 
      557 xff_10.xinv_5.xpfet.            pfet               1.00 
      558 xff_10.xinv_5.xnfet.            nfet               1.00 
      559 xff_10.xtg_2.xpfet.             pfet               1.00 
      560 xff_10.xtg_2.xnfet.             nfet               1.00 
      561 xff_10.xtg_3.xpfet.             pfet               1.00 
      562 xff_10.xtg_3.xnfet.             nfet               1.00 
      563 xff_10.xinv_6.xpfet.            pfet               1.00 
      564 xff_10.xinv_6.xnfet.            nfet               1.00 
      565 xff_10.xinv_7.xpfet.            pfet               1.00 
      566 xff_10.xinv_7.xnfet.            nfet               1.00 
      567 xff_10.xinv_8.xpfet.            pfet               1.00 
      568 xff_10.xinv_8.xnfet.            nfet               1.00 
      569 xff_10.xtg_4.xpfet.             pfet               1.00 
      570 xff_10.xtg_4.xnfet.             nfet               1.00 
      571 xff_11.xinv_1.xpfet.            pfet               1.00 
      572 xff_11.xinv_1.xnfet.            nfet               1.00 
      573 xff_11.xinv_2.xpfet.            pfet               1.00 
      574 xff_11.xinv_2.xnfet.            nfet               1.00 
      575 xff_11.xinv_3.xpfet.            pfet               1.00 
      576 xff_11.xinv_3.xnfet.            nfet               1.00 
      577 xff_11.xtg_1.xpfet.             pfet               1.00 
      578 xff_11.xtg_1.xnfet.             nfet               1.00 
      579 xff_11.xinv_4.xpfet.            pfet               1.00 
      580 xff_11.xinv_4.xnfet.            nfet               1.00 
      581 xff_11.xinv_5.xpfet.            pfet               1.00 
      582 xff_11.xinv_5.xnfet.            nfet               1.00 
      583 xff_11.xtg_2.xpfet.             pfet               1.00 
      584 xff_11.xtg_2.xnfet.             nfet               1.00 
      585 xff_11.xtg_3.xpfet.             pfet               1.00 
      586 xff_11.xtg_3.xnfet.             nfet               1.00 
      587 xff_11.xinv_6.xpfet.            pfet               1.00 
      588 xff_11.xinv_6.xnfet.            nfet               1.00 
      589 xff_11.xinv_7.xpfet.            pfet               1.00 
      590 xff_11.xinv_7.xnfet.            nfet               1.00 
      591 xff_11.xinv_8.xpfet.            pfet               1.00 
      592 xff_11.xinv_8.xnfet.            nfet               1.00 
      593 xff_11.xtg_4.xpfet.             pfet               1.00 
      594 xff_11.xtg_4.xnfet.             nfet               1.00 
      595 xff_12.xinv_1.xpfet.            pfet               1.00 
      596 xff_12.xinv_1.xnfet.            nfet               1.00 
      597 xff_12.xinv_2.xpfet.            pfet               1.00 
      598 xff_12.xinv_2.xnfet.            nfet               1.00 
      599 xff_12.xinv_3.xpfet.            pfet               1.00 
      600 xff_12.xinv_3.xnfet.            nfet               1.00 
      601 xff_12.xtg_1.xpfet.             pfet               1.00 
      602 xff_12.xtg_1.xnfet.             nfet               1.00 
      603 xff_12.xinv_4.xpfet.            pfet               1.00 
      604 xff_12.xinv_4.xnfet.            nfet               1.00 
      605 xff_12.xinv_5.xpfet.            pfet               1.00 
      606 xff_12.xinv_5.xnfet.            nfet               1.00 
      607 xff_12.xtg_2.xpfet.             pfet               1.00 
      608 xff_12.xtg_2.xnfet.             nfet               1.00 
      609 xff_12.xtg_3.xpfet.             pfet               1.00 
      610 xff_12.xtg_3.xnfet.             nfet               1.00 
      611 xff_12.xinv_6.xpfet.            pfet               1.00 
      612 xff_12.xinv_6.xnfet.            nfet               1.00 
      613 xff_12.xinv_7.xpfet.            pfet               1.00 
      614 xff_12.xinv_7.xnfet.            nfet               1.00 
      615 xff_12.xinv_8.xpfet.            pfet               1.00 
      616 xff_12.xinv_8.xnfet.            nfet               1.00 
      617 xff_12.xtg_4.xpfet.             pfet               1.00 
      618 xff_12.xtg_4.xnfet.             nfet               1.00 
      619 xff_13.xinv_1.xpfet.            pfet               1.00 
      620 xff_13.xinv_1.xnfet.            nfet               1.00 
      621 xff_13.xinv_2.xpfet.            pfet               1.00 
      622 xff_13.xinv_2.xnfet.            nfet               1.00 
      623 xff_13.xinv_3.xpfet.            pfet               1.00 
      624 xff_13.xinv_3.xnfet.            nfet               1.00 
      625 xff_13.xtg_1.xpfet.             pfet               1.00 
      626 xff_13.xtg_1.xnfet.             nfet               1.00 
      627 xff_13.xinv_4.xpfet.            pfet               1.00 
      628 xff_13.xinv_4.xnfet.            nfet               1.00 
      629 xff_13.xinv_5.xpfet.            pfet               1.00 
      630 xff_13.xinv_5.xnfet.            nfet               1.00 
      631 xff_13.xtg_2.xpfet.             pfet               1.00 
      632 xff_13.xtg_2.xnfet.             nfet               1.00 
      633 xff_13.xtg_3.xpfet.             pfet               1.00 
      634 xff_13.xtg_3.xnfet.             nfet               1.00 
      635 xff_13.xinv_6.xpfet.            pfet               1.00 
      636 xff_13.xinv_6.xnfet.            nfet               1.00 
      637 xff_13.xinv_7.xpfet.            pfet               1.00 
      638 xff_13.xinv_7.xnfet.            nfet               1.00 
      639 xff_13.xinv_8.xpfet.            pfet               1.00 
      640 xff_13.xinv_8.xnfet.            nfet               1.00 
      641 xff_13.xtg_4.xpfet.             pfet               1.00 
      642 xff_13.xtg_4.xnfet.             nfet               1.00 
      643 xff_14.xinv_1.xpfet.            pfet               1.00 
      644 xff_14.xinv_1.xnfet.            nfet               1.00 
      645 xff_14.xinv_2.xpfet.            pfet               1.00 
      646 xff_14.xinv_2.xnfet.            nfet               1.00 
      647 xff_14.xinv_3.xpfet.            pfet               1.00 
      648 xff_14.xinv_3.xnfet.            nfet               1.00 
      649 xff_14.xtg_1.xpfet.             pfet               1.00 
      650 xff_14.xtg_1.xnfet.             nfet               1.00 
      651 xff_14.xinv_4.xpfet.            pfet               1.00 
      652 xff_14.xinv_4.xnfet.            nfet               1.00 
      653 xff_14.xinv_5.xpfet.            pfet               1.00 
      654 xff_14.xinv_5.xnfet.            nfet               1.00 
      655 xff_14.xtg_2.xpfet.             pfet               1.00 
      656 xff_14.xtg_2.xnfet.             nfet               1.00 
      657 xff_14.xtg_3.xpfet.             pfet               1.00 
      658 xff_14.xtg_3.xnfet.             nfet               1.00 
      659 xff_14.xinv_6.xpfet.            pfet               1.00 
      660 xff_14.xinv_6.xnfet.            nfet               1.00 
      661 xff_14.xinv_7.xpfet.            pfet               1.00 
      662 xff_14.xinv_7.xnfet.            nfet               1.00 
      663 xff_14.xinv_8.xpfet.            pfet               1.00 
      664 xff_14.xinv_8.xnfet.            nfet               1.00 
      665 xff_14.xtg_4.xpfet.             pfet               1.00 
      666 xff_14.xtg_4.xnfet.             nfet               1.00 
      667 xff_15.xinv_1.xpfet.            pfet               1.00 
      668 xff_15.xinv_1.xnfet.            nfet               1.00 
      669 xff_15.xinv_2.xpfet.            pfet               1.00 
      670 xff_15.xinv_2.xnfet.            nfet               1.00 
      671 xff_15.xinv_3.xpfet.            pfet               1.00 
      672 xff_15.xinv_3.xnfet.            nfet               1.00 
      673 xff_15.xtg_1.xpfet.             pfet               1.00 
      674 xff_15.xtg_1.xnfet.             nfet               1.00 
      675 xff_15.xinv_4.xpfet.            pfet               1.00 
      676 xff_15.xinv_4.xnfet.            nfet               1.00 
      677 xff_15.xinv_5.xpfet.            pfet               1.00 
      678 xff_15.xinv_5.xnfet.            nfet               1.00 
      679 xff_15.xtg_2.xpfet.             pfet               1.00 
      680 xff_15.xtg_2.xnfet.             nfet               1.00 
      681 xff_15.xtg_3.xpfet.             pfet               1.00 
      682 xff_15.xtg_3.xnfet.             nfet               1.00 
      683 xff_15.xinv_6.xpfet.            pfet               1.00 
      684 xff_15.xinv_6.xnfet.            nfet               1.00 
      685 xff_15.xinv_7.xpfet.            pfet               1.00 
      686 xff_15.xinv_7.xnfet.            nfet               1.00 
      687 xff_15.xinv_8.xpfet.            pfet               1.00 
      688 xff_15.xinv_8.xnfet.            nfet               1.00 
      689 xff_15.xtg_4.xpfet.             pfet               1.00 
      690 xff_15.xtg_4.xnfet.             nfet               1.00 
      691 xff_16.xinv_1.xpfet.            pfet               1.00 
      692 xff_16.xinv_1.xnfet.            nfet               1.00 
      693 xff_16.xinv_2.xpfet.            pfet               1.00 
      694 xff_16.xinv_2.xnfet.            nfet               1.00 
      695 xff_16.xinv_3.xpfet.            pfet               1.00 
      696 xff_16.xinv_3.xnfet.            nfet               1.00 
      697 xff_16.xtg_1.xpfet.             pfet               1.00 
      698 xff_16.xtg_1.xnfet.             nfet               1.00 
      699 xff_16.xinv_4.xpfet.            pfet               1.00 
      700 xff_16.xinv_4.xnfet.            nfet               1.00 
      701 xff_16.xinv_5.xpfet.            pfet               1.00 
      702 xff_16.xinv_5.xnfet.            nfet               1.00 
      703 xff_16.xtg_2.xpfet.             pfet               1.00 
      704 xff_16.xtg_2.xnfet.             nfet               1.00 
      705 xff_16.xtg_3.xpfet.             pfet               1.00 
      706 xff_16.xtg_3.xnfet.             nfet               1.00 
      707 xff_16.xinv_6.xpfet.            pfet               1.00 
      708 xff_16.xinv_6.xnfet.            nfet               1.00 
      709 xff_16.xinv_7.xpfet.            pfet               1.00 
      710 xff_16.xinv_7.xnfet.            nfet               1.00 
      711 xff_16.xinv_8.xpfet.            pfet               1.00 
      712 xff_16.xinv_8.xnfet.            nfet               1.00 
      713 xff_16.xtg_4.xpfet.             pfet               1.00 
      714 xff_16.xtg_4.xnfet.             nfet               1.00 
      715 xor2.xinv_size_1.xpfet.         pfet               1.00 
      716 xor2.xinv_size_1.xnfet.         nfet               1.00 


 circuit parameter definitions
  parameter          =  value 

     0:temp                                                    =  35.0000       
     0:temper@_1                                               =  35.0000       
     0:vdd                                                     = 750.0000m      
     0:vddp                                                    =-750.0000m      
     0:fin_height                                              =  21.0000n      
     0:fin_width                                               =   9.0000n      
     0:lg                                                      =  14.0000n      
     0:supply                                                  = 750.0000m      
    27:nfin                                                    =   4.0000       
    27:l                                                       =  14.0000n      
    28:nfin                                                    =   4.0000       
    28:l                                                       =  14.0000n      
   246:nfin                                                    =   1.0000       
   246:l                                                       =  14.0000n      
   247:nfin                                                    =   1.0000       
   248:nfin                                                    =   1.0000       
   248:l                                                       =  14.0000n      
   249:nfin                                                    =   1.0000       
   250:nfin                                                    =   1.0000       
   251:nfin                                                    =   1.0000       
   252:nfin                                                    =   1.0000       
   253:nfin                                                    =   1.0000       
   254:nfin                                                    =   1.0000       
   255:nfin                                                    =   1.0000       
   256:nfin                                                    =   1.0000       
   257:nfin                                                    =   1.0000       
   258:nfin                                                    =   1.0000       
   259:nfin                                                    =   1.0000       
   260:nfin                                                    =   1.0000       
   261:nfin                                                    =   1.0000       
   262:nfin                                                    =   1.0000       
   263:nfin                                                    =   1.0000       
   264:nfin                                                    =   1.0000       
   265:nfin                                                    =   1.0000       
   266:nfin                                                    =   1.0000       
   267:nfin                                                    =   1.0000       
   268:nfin                                                    =   1.0000       
   269:nfin                                                    =   1.0000       
   270:nfin                                                    =   1.0000       
   271:nfin                                                    =   1.0000       
   272:nfin                                                    =   1.0000       
   273:nfin                                                    =   1.0000       
   274:nfin                                                    =   1.0000       
   275:nfin                                                    =   1.0000       
   276:nfin                                                    =   1.0000       
   276:l                                                       =  14.0000n      
   277:nfin                                                    =   1.0000       
   278:nfin                                                    =   1.0000       
   278:l                                                       =  14.0000n      
   279:nfin                                                    =   1.0000       
   281:nfin                                                    =   4.0000       
   281:l                                                       =  14.0000n      
   282:nfin                                                    =   4.0000       
   282:l                                                       =  14.0000n      
   283:nfin                                                    =   1.0000       
   283:l                                                       =  14.0000n      
   284:nfin                                                    =   1.0000       
   284:l                                                       =  14.0000n      
   285:nfin                                                    =   1.0000       
   286:nfin                                                    =   1.0000       
   287:nfin                                                    =   1.0000       
   288:nfin                                                    =   1.0000       
   289:nfin                                                    =   1.0000       
   290:nfin                                                    =   1.0000       
   291:nfin                                                    =   1.0000       
   292:nfin                                                    =   1.0000       
   293:nfin                                                    =   1.0000       
   294:nfin                                                    =   1.0000       
   295:nfin                                                    =   1.0000       
   296:nfin                                                    =   1.0000       
   297:nfin                                                    =   1.0000       
   298:nfin                                                    =   1.0000       
   299:nfin                                                    =   1.0000       
   300:nfin                                                    =   1.0000       
   301:nfin                                                    =   1.0000       
   302:nfin                                                    =   1.0000       
   303:nfin                                                    =   1.0000       
   304:nfin                                                    =   1.0000       
   305:nfin                                                    =   1.0000       
   306:nfin                                                    =   1.0000       
   307:nfin                                                    =   1.0000       
   308:nfin                                                    =   1.0000       
   309:nfin                                                    =   1.0000       
   310:nfin                                                    =   1.0000       
   311:nfin                                                    =   1.0000       
   312:nfin                                                    =   1.0000       
   313:nfin                                                    =   1.0000       
   314:nfin                                                    =   1.0000       
   315:nfin                                                    =   1.0000       
   316:nfin                                                    =   1.0000       
   317:nfin                                                    =   1.0000       
   318:nfin                                                    =   1.0000       
   319:nfin                                                    =   1.0000       
   320:nfin                                                    =   1.0000       
   321:nfin                                                    =   1.0000       
   322:nfin                                                    =   1.0000       
   323:nfin                                                    =   1.0000       
   324:nfin                                                    =   1.0000       
   325:nfin                                                    =   1.0000       
   326:nfin                                                    =   1.0000       
   327:nfin                                                    =   1.0000       
   328:nfin                                                    =   1.0000       
   329:nfin                                                    =   1.0000       
   330:nfin                                                    =   1.0000       
   331:nfin                                                    =   1.0000       
   331:l                                                       =  14.0000n      
   332:nfin                                                    =   1.0000       
   332:l                                                       =  14.0000n      
   333:nfin                                                    =   1.0000       
   334:nfin                                                    =   1.0000       
   335:nfin                                                    =   1.0000       
   336:nfin                                                    =   1.0000       
   337:nfin                                                    =   1.0000       
   337:l                                                       =  14.0000n      
   338:nfin                                                    =   1.0000       
   338:l                                                       =  14.0000n      
   339:nfin                                                    =   1.0000       
   340:nfin                                                    =   1.0000       
   341:nfin                                                    =   1.0000       
   342:nfin                                                    =   1.0000       
   343:nfin                                                    =   1.0000       
   344:nfin                                                    =   1.0000       
   345:nfin                                                    =   1.0000       
   346:nfin                                                    =   1.0000       
   347:nfin                                                    =   1.0000       
   348:nfin                                                    =   1.0000       
   349:nfin                                                    =   1.0000       
   350:nfin                                                    =   1.0000       
   351:nfin                                                    =   1.0000       
   352:nfin                                                    =   1.0000       
   353:nfin                                                    =   1.0000       
   354:nfin                                                    =   1.0000       
   355:nfin                                                    =   1.0000       
   356:nfin                                                    =   1.0000       
   357:nfin                                                    =   1.0000       
   358:nfin                                                    =   1.0000       
   359:nfin                                                    =   1.0000       
   360:nfin                                                    =   1.0000       
   361:nfin                                                    =   1.0000       
   362:nfin                                                    =   1.0000       
   363:nfin                                                    =   1.0000       
   364:nfin                                                    =   1.0000       
   365:nfin                                                    =   1.0000       
   366:nfin                                                    =   1.0000       
   367:nfin                                                    =   1.0000       
   368:nfin                                                    =   1.0000       
   369:nfin                                                    =   1.0000       
   370:nfin                                                    =   1.0000       
   371:nfin                                                    =   1.0000       
   372:nfin                                                    =   1.0000       
   373:nfin                                                    =   1.0000       
   374:nfin                                                    =   1.0000       
   375:nfin                                                    =   1.0000       
   376:nfin                                                    =   1.0000       
   377:nfin                                                    =   1.0000       
   378:nfin                                                    =   1.0000       
   379:nfin                                                    =   1.0000       
   380:nfin                                                    =   1.0000       
   381:nfin                                                    =   1.0000       
   382:nfin                                                    =   1.0000       
   383:nfin                                                    =   1.0000       
   384:nfin                                                    =   1.0000       
   385:nfin                                                    =   1.0000       
   386:nfin                                                    =   1.0000       
   387:nfin                                                    =   1.0000       
   388:nfin                                                    =   1.0000       
   389:nfin                                                    =   1.0000       
   390:nfin                                                    =   1.0000       
   391:nfin                                                    =   1.0000       
   392:nfin                                                    =   1.0000       
   393:nfin                                                    =   1.0000       
   394:nfin                                                    =   1.0000       
   395:nfin                                                    =   1.0000       
   396:nfin                                                    =   1.0000       
   397:nfin                                                    =   1.0000       
   398:nfin                                                    =   1.0000       
   399:nfin                                                    =   1.0000       
   400:nfin                                                    =   1.0000       
   401:nfin                                                    =   1.0000       
   402:nfin                                                    =   1.0000       
   403:nfin                                                    =   1.0000       
   404:nfin                                                    =   1.0000       
   405:nfin                                                    =   1.0000       
   406:nfin                                                    =   1.0000       
   407:nfin                                                    =   1.0000       
   408:nfin                                                    =   1.0000       
   409:nfin                                                    =   1.0000       
   410:nfin                                                    =   1.0000       
   411:nfin                                                    =   1.0000       
   412:nfin                                                    =   1.0000       
   413:nfin                                                    =   1.0000       
   414:nfin                                                    =   1.0000       
   415:nfin                                                    =   1.0000       
   416:nfin                                                    =   1.0000       
   417:nfin                                                    =   1.0000       
   418:nfin                                                    =   1.0000       
   419:nfin                                                    =   1.0000       
   420:nfin                                                    =   1.0000       
   421:nfin                                                    =   1.0000       
   422:nfin                                                    =   1.0000       
   423:nfin                                                    =   1.0000       
   424:nfin                                                    =   1.0000       
   425:nfin                                                    =   1.0000       
   426:nfin                                                    =   1.0000       
   427:nfin                                                    =   1.0000       
   428:nfin                                                    =   1.0000       
   429:nfin                                                    =   1.0000       
   430:nfin                                                    =   1.0000       
   431:nfin                                                    =   1.0000       
   432:nfin                                                    =   1.0000       
   433:nfin                                                    =   1.0000       
   434:nfin                                                    =   1.0000       
   435:nfin                                                    =   1.0000       
   436:nfin                                                    =   1.0000       
   437:nfin                                                    =   1.0000       
   438:nfin                                                    =   1.0000       
   439:nfin                                                    =   1.0000       
   440:nfin                                                    =   1.0000       
   441:nfin                                                    =   1.0000       
   442:nfin                                                    =   1.0000       
   443:nfin                                                    =   1.0000       
   444:nfin                                                    =   1.0000       
   445:nfin                                                    =   1.0000       
   446:nfin                                                    =   1.0000       
   447:nfin                                                    =   1.0000       
   448:nfin                                                    =   1.0000       
   449:nfin                                                    =   1.0000       
   450:nfin                                                    =   1.0000       
   451:nfin                                                    =   1.0000       
   452:nfin                                                    =   1.0000       
   453:nfin                                                    =   1.0000       
   454:nfin                                                    =   1.0000       
   455:nfin                                                    =   1.0000       
   456:nfin                                                    =   1.0000       
   457:nfin                                                    =   1.0000       
   458:nfin                                                    =   1.0000       
   459:nfin                                                    =   1.0000       
   460:nfin                                                    =   1.0000       
   461:nfin                                                    =   1.0000       
   462:nfin                                                    =   1.0000       
   463:nfin                                                    =   1.0000       
   464:nfin                                                    =   1.0000       
   465:nfin                                                    =   1.0000       
   466:nfin                                                    =   1.0000       
   467:nfin                                                    =   1.0000       
   468:nfin                                                    =   1.0000       
   469:nfin                                                    =   1.0000       
   470:nfin                                                    =   1.0000       
   471:nfin                                                    =   1.0000       
   472:nfin                                                    =   1.0000       
   473:nfin                                                    =   1.0000       
   474:nfin                                                    =   1.0000       
   475:nfin                                                    =   1.0000       
   476:nfin                                                    =   1.0000       
   477:nfin                                                    =   1.0000       
   478:nfin                                                    =   1.0000       
   479:nfin                                                    =   1.0000       
   480:nfin                                                    =   1.0000       
   481:nfin                                                    =   1.0000       
   482:nfin                                                    =   1.0000       
   483:nfin                                                    =   1.0000       
   484:nfin                                                    =   1.0000       
   485:nfin                                                    =   1.0000       
   486:nfin                                                    =   1.0000       
   487:nfin                                                    =   1.0000       
   488:nfin                                                    =   1.0000       
   489:nfin                                                    =   1.0000       
   490:nfin                                                    =   1.0000       
   491:nfin                                                    =   1.0000       
   492:nfin                                                    =   1.0000       
   493:nfin                                                    =   1.0000       
   494:nfin                                                    =   1.0000       
   495:nfin                                                    =   1.0000       
   496:nfin                                                    =   1.0000       
   497:nfin                                                    =   1.0000       
   498:nfin                                                    =   1.0000       
   499:nfin                                                    =   1.0000       
   500:nfin                                                    =   1.0000       
   501:nfin                                                    =   1.0000       
   502:nfin                                                    =   1.0000       
   503:nfin                                                    =   1.0000       
   504:nfin                                                    =   1.0000       
   505:nfin                                                    =   1.0000       
   506:nfin                                                    =   1.0000       
   507:nfin                                                    =   1.0000       
   508:nfin                                                    =   1.0000       
   509:nfin                                                    =   1.0000       
   510:nfin                                                    =   1.0000       
   511:nfin                                                    =   1.0000       
   512:nfin                                                    =   1.0000       
   513:nfin                                                    =   1.0000       
   514:nfin                                                    =   1.0000       
   515:nfin                                                    =   1.0000       
   516:nfin                                                    =   1.0000       
   517:nfin                                                    =   1.0000       
   518:nfin                                                    =   1.0000       
   519:nfin                                                    =   1.0000       
   520:nfin                                                    =   1.0000       
   521:nfin                                                    =   1.0000       
   522:nfin                                                    =   1.0000       
   523:nfin                                                    =   1.0000       
   524:nfin                                                    =   1.0000       
   525:nfin                                                    =   1.0000       
   526:nfin                                                    =   1.0000       
   527:nfin                                                    =   1.0000       
   528:nfin                                                    =   1.0000       
   529:nfin                                                    =   1.0000       
   530:nfin                                                    =   1.0000       
   531:nfin                                                    =   1.0000       
   532:nfin                                                    =   1.0000       
   533:nfin                                                    =   1.0000       
   534:nfin                                                    =   1.0000       
   535:nfin                                                    =   1.0000       
   536:nfin                                                    =   1.0000       
   537:nfin                                                    =   1.0000       
   538:nfin                                                    =   1.0000       
   539:nfin                                                    =   1.0000       
   540:nfin                                                    =   1.0000       
   541:nfin                                                    =   1.0000       
   542:nfin                                                    =   1.0000       
   543:nfin                                                    =   1.0000       
   544:nfin                                                    =   1.0000       
   545:nfin                                                    =   1.0000       
   546:nfin                                                    =   1.0000       
   547:nfin                                                    =   1.0000       
   548:nfin                                                    =   1.0000       
   549:nfin                                                    =   1.0000       
   550:nfin                                                    =   1.0000       
   551:nfin                                                    =   1.0000       
   552:nfin                                                    =   1.0000       
   553:nfin                                                    =   1.0000       
   554:nfin                                                    =   1.0000       
   555:nfin                                                    =   1.0000       
   556:nfin                                                    =   1.0000       
   557:nfin                                                    =   1.0000       
   558:nfin                                                    =   1.0000       
   559:nfin                                                    =   1.0000       
   560:nfin                                                    =   1.0000       
   561:nfin                                                    =   1.0000       
   562:nfin                                                    =   1.0000       
   563:nfin                                                    =   1.0000       
   564:nfin                                                    =   1.0000       
   565:nfin                                                    =   1.0000       
[...]
      618:mnfet               1.2956k          1.2956k          0.               0.               0.               0.           
      619:mpfet               1.4806k          1.4806k          0.               0.               0.               0.           
      620:mnfet               1.2956k          1.2956k          0.               0.               0.               0.           
      621:mpfet               1.4806k          1.4806k          0.               0.               0.               0.           
      622:mnfet               1.2956k          1.2956k          0.               0.               0.               0.           
      623:mpfet               1.4806k          1.4806k          0.               0.               0.               0.           
      624:mnfet               1.2956k          1.2956k          0.               0.               0.               0.           
      625:mpfet               1.4806k          1.4806k          0.               0.               0.               0.           
      626:mnfet               1.2956k          1.2956k          0.               0.               0.               0.           
      627:mpfet               1.4806k          1.4806k          0.               0.               0.               0.           
      628:mnfet               1.2956k          1.2956k          0.               0.               0.               0.           
      629:mpfet               1.4806k          1.4806k          0.               0.               0.               0.           
      630:mnfet               1.2956k          1.2956k          0.               0.               0.               0.           
      631:mpfet               1.4806k          1.4806k          0.               0.               0.               0.           
      632:mnfet               1.2956k          1.2956k          0.               0.               0.               0.           
      633:mpfet               1.4806k          1.4806k          0.               0.               0.               0.           
      634:mnfet               1.2956k          1.2956k          0.               0.               0.               0.           
      635:mpfet               1.4806k          1.4806k          0.               0.               0.               0.           
      636:mnfet               1.2956k          1.2956k          0.               0.               0.               0.           
      637:mpfet               1.4806k          1.4806k          0.               0.               0.               0.           
      638:mnfet               1.2956k          1.2956k          0.               0.               0.               0.           
      639:mpfet               1.4806k          1.4806k          0.               0.               0.               0.           
      640:mnfet               1.2956k          1.2956k          0.               0.               0.               0.           
      641:mpfet               1.4806k          1.4806k          0.               0.               0.               0.           
      642:mnfet               1.2956k          1.2956k          0.               0.               0.               0.           
      643:mpfet               1.4806k          1.4806k          0.               0.               0.               0.           
      644:mnfet               1.2956k          1.2956k          0.               0.               0.               0.           
      645:mpfet               1.4806k          1.4806k          0.               0.               0.               0.           
      646:mnfet               1.2956k          1.2956k          0.               0.               0.               0.           
      647:mpfet               1.4806k          1.4806k          0.               0.               0.               0.           
      648:mnfet               1.2956k          1.2956k          0.               0.               0.               0.           
      649:mpfet               1.4806k          1.4806k          0.               0.               0.               0.           
      650:mnfet               1.2956k          1.2956k          0.               0.               0.               0.           
      651:mpfet               1.4806k          1.4806k          0.               0.               0.               0.           
      652:mnfet               1.2956k          1.2956k          0.               0.               0.               0.           
      653:mpfet               1.4806k          1.4806k          0.               0.               0.               0.           
      654:mnfet               1.2956k          1.2956k          0.               0.               0.               0.           
      655:mpfet               1.4806k          1.4806k          0.               0.               0.               0.           
      656:mnfet               1.2956k          1.2956k          0.               0.               0.               0.           
      657:mpfet               1.4806k          1.4806k          0.               0.               0.               0.           
      658:mnfet               1.2956k          1.2956k          0.               0.               0.               0.           
      659:mpfet               1.4806k          1.4806k          0.               0.               0.               0.           
      660:mnfet               1.2956k          1.2956k          0.               0.               0.               0.           
      661:mpfet               1.4806k          1.4806k          0.               0.               0.               0.           
      662:mnfet               1.2956k          1.2956k          0.               0.               0.               0.           
      663:mpfet               1.4806k          1.4806k          0.               0.               0.               0.           
      664:mnfet               1.2956k          1.2956k          0.               0.               0.               0.           
      665:mpfet               1.4806k          1.4806k          0.               0.               0.               0.           
      666:mnfet               1.2956k          1.2956k          0.               0.               0.               0.           
      667:mpfet               1.4806k          1.4806k          0.               0.               0.               0.           
      668:mnfet               1.2956k          1.2956k          0.               0.               0.               0.           
      669:mpfet               1.4806k          1.4806k          0.               0.               0.               0.           
      670:mnfet               1.2956k          1.2956k          0.               0.               0.               0.           
      671:mpfet               1.4806k          1.4806k          0.               0.               0.               0.           
      672:mnfet               1.2956k          1.2956k          0.               0.               0.               0.           
      673:mpfet               1.4806k          1.4806k          0.               0.               0.               0.           
      674:mnfet               1.2956k          1.2956k          0.               0.               0.               0.           
      675:mpfet               1.4806k          1.4806k          0.               0.               0.               0.           
      676:mnfet               1.2956k          1.2956k          0.               0.               0.               0.           
      677:mpfet               1.4806k          1.4806k          0.               0.               0.               0.           
      678:mnfet               1.2956k          1.2956k          0.               0.               0.               0.           
      679:mpfet               1.4806k          1.4806k          0.               0.               0.               0.           
      680:mnfet               1.2956k          1.2956k          0.               0.               0.               0.           
      681:mpfet               1.4806k          1.4806k          0.               0.               0.               0.           
      682:mnfet               1.2956k          1.2956k          0.               0.               0.               0.           
      683:mpfet               1.4806k          1.4806k          0.               0.               0.               0.           
      684:mnfet               1.2956k          1.2956k          0.               0.               0.               0.           
      685:mpfet               1.4806k          1.4806k          0.               0.               0.               0.           
      686:mnfet               1.2956k          1.2956k          0.               0.               0.               0.           
      687:mpfet               1.4806k          1.4806k          0.               0.               0.               0.           
      688:mnfet               1.2956k          1.2956k          0.               0.               0.               0.           
      689:mpfet               1.4806k          1.4806k          0.               0.               0.               0.           
      690:mnfet               1.2956k          1.2956k          0.               0.               0.               0.           
      691:mpfet               1.4806k          1.4806k          0.               0.               0.               0.           
      692:mnfet               1.2956k          1.2956k          0.               0.               0.               0.           
      693:mpfet               1.4806k          1.4806k          0.               0.               0.               0.           
      694:mnfet               1.2956k          1.2956k          0.               0.               0.               0.           
      695:mpfet               1.4806k          1.4806k          0.               0.               0.               0.           
      696:mnfet               1.2956k          1.2956k          0.               0.               0.               0.           
      697:mpfet               1.4806k          1.4806k          0.               0.               0.               0.           
      698:mnfet               1.2956k          1.2956k          0.               0.               0.               0.           
      699:mpfet               1.4806k          1.4806k          0.               0.               0.               0.           
      700:mnfet               1.2956k          1.2956k          0.               0.               0.               0.           
      701:mpfet               1.4806k          1.4806k          0.               0.               0.               0.           
      702:mnfet               1.2956k          1.2956k          0.               0.               0.               0.           
      703:mpfet               1.4806k          1.4806k          0.               0.               0.               0.           
      704:mnfet               1.2956k          1.2956k          0.               0.               0.               0.           
      705:mpfet               1.4806k          1.4806k          0.               0.               0.               0.           
      706:mnfet               1.2956k          1.2956k          0.               0.               0.               0.           
      707:mpfet               1.4806k          1.4806k          0.               0.               0.               0.           
      708:mnfet               1.2956k          1.2956k          0.               0.               0.               0.           
      709:mpfet               1.4806k          1.4806k          0.               0.               0.               0.           
      710:mnfet               1.2956k          1.2956k          0.               0.               0.               0.           
      711:mpfet               1.4806k          1.4806k          0.               0.               0.               0.           
      712:mnfet               1.2956k          1.2956k          0.               0.               0.               0.           
      713:mpfet               1.4806k          1.4806k          0.               0.               0.               0.           
      714:mnfet               1.2956k          1.2956k          0.               0.               0.               0.           
      715:mpfet               1.4806k          1.4806k          0.               0.               0.               0.           
      716:mnfet               1.2956k          1.2956k          0.               0.               0.               0.           
1****** HSPICE -- J-2014.09-2 64-BIT (Oct 22 2014) win64 ******                 
 ******  
 lfsp

 ****** operating point information tnom=  25.000 temp=  35.000 ******
 ****** operating point status is voltage   simulation time is     0.     
      node    =voltage        node    =voltage        node    =voltage

 +  0:clk_1   =  58.1549n   0:clk_10  =  58.1549n   0:clk_11  =  58.1549n
 +  0:clk_12  =  58.1549n   0:clk_13  =  58.1549n   0:clk_14  =  58.1549n
 +  0:clk_15  =  58.1549n   0:clk_16  =  58.1549n   0:clk_2   =  58.1549n
 +  0:clk_3   =  58.1549n   0:clk_4   =  58.1549n   0:clk_5   =  58.1549n
 +  0:clk_6   =  58.1549n   0:clk_7   =  58.1549n   0:clk_8   =  58.1549n
 +  0:clk_9   =  58.1549n   0:clk_in  =   0.        0:clk_temp=  58.2895n
 +  0:clk_temp=  58.2895n   0:clk_temp=  58.2895n   0:clk_temp=  58.2895n
 +  0:d       = 749.9999m   0:init    = 750.0000m   0:load_in =  58.3793n
 +  0:load_out= 750.0000m   0:q1      =  58.1549n   0:q10     =  58.1549n
 +  0:q11     =  58.1549n   0:q12     =  58.1549n   0:q13     =  58.2447n
 +  0:q14     =  58.1549n   0:q15     =  58.2447n   0:q2      =  58.1549n
 +  0:q3      =  58.1549n   0:q4      =  58.2447n   0:q5      =  58.1549n
 +  0:q6      =  58.1549n   0:q7      =  58.1549n   0:q8      =  58.1549n
 +  0:q9      =  58.1549n   0:temp_1  =  58.1998n   0:temp_2  =  58.1998n
 +  0:temp_3  =  58.1549n   0:vdd_clk = 750.0000m   0:vdd_desi= 750.0000m
 +  0:vdd_load= 750.0000m   0:vss_com =   0.        2:out_int = 749.9999m
 +  3:out_int = 749.9999m   4:out_int = 749.9999m   5:out_int = 749.9999m
 +  6:out_int = 749.9999m   7:ckl     =  58.1101n   7:ckn     = 749.9998m
 +  7:m1      = 118.0567n   7:m2      = 148.0536n   7:m3      =  58.1124n
 +  7:s1      = 257.0106n   7:s2      = 749.9998m   7:s3      = 172.5352n
 +  7:temp    = 749.9998m   8:ckl     =  58.1549n   8:ckn     = 749.9998m
 +  8:m1      = 749.9999m   8:m2      = 749.9998m   8:m3      = 750.0000m
 +  8:s1      = 148.0537n   8:s2      = 749.9998m   8:s3      = 118.0567n
 +  8:temp    =  58.1573n   9:ckl     =  58.1549n   9:ckn     = 749.9998m
 +  9:m1      = 749.9999m   9:m2      = 749.9998m   9:m3      = 750.0000m
 +  9:s1      = 148.0537n   9:s2      = 749.9998m   9:s3      = 118.0567n
 +  9:temp    =  58.1573n  10:ckl     =  58.1549n  10:ckn     = 749.9998m
 + 10:m1      = 749.9999m  10:m2      = 749.9998m  10:m3      = 750.0000m
 + 10:s1      = 148.0537n  10:s2      = 749.9998m  10:s3      = 118.0567n
 + 10:temp    =  58.1573n  11:ckl     =  58.1549n  11:ckn     = 749.9998m
 + 11:m1      = 749.9999m  11:m2      = 749.9998m  11:m3      = 750.0000m
 + 11:s1      = 148.0537n  11:s2      = 749.9998m  11:s3      = 118.0567n
 + 11:temp    =  58.1573n  12:ckl     =  58.1549n  12:ckn     = 749.9998m
 + 12:m1      = 749.9999m  12:m2      = 749.9998m  12:m3      = 750.0000m
 + 12:s1      = 148.0537n  12:s2      = 749.9998m  12:s3      = 118.0567n
 + 12:temp    =  58.1573n  13:ckl     =  58.1549n  13:ckn     = 749.9998m
 + 13:m1      = 749.9999m  13:m2      = 749.9998m  13:m3      = 750.0000m
 + 13:s1      = 148.0537n  13:s2      = 749.9998m  13:s3      = 118.0567n
 + 13:temp    =  58.1573n  14:ckl     =  58.1549n  14:ckn     = 749.9998m
 + 14:m1      = 749.9999m  14:m2      = 749.9998m  14:m3      = 750.0000m
 + 14:s1      = 148.0537n  14:s2      = 749.9998m  14:s3      = 118.0567n
 + 14:temp    =  58.1573n  15:ckl     =  58.1549n  15:ckn     = 749.9998m
 + 15:m1      = 749.9999m  15:m2      = 749.9998m  15:m3      = 750.0000m
 + 15:s1      = 148.0537n  15:s2      = 749.9998m  15:s3      = 118.0567n
 + 15:temp    =  58.1573n  16:ckl     =  58.1549n  16:ckn     = 749.9998m
 + 16:m1      = 749.9999m  16:m2      = 749.9998m  16:m3      = 750.0000m
 + 16:s1      = 148.0537n  16:s2      = 749.9998m  16:s3      = 118.0567n
 + 16:temp    =  58.1573n  17:ckl     =  58.1549n  17:ckn     = 749.9998m
 + 17:m1      = 749.9999m  17:m2      = 749.9998m  17:m3      = 750.0000m
 + 17:s1      = 148.0537n  17:s2      = 749.9998m  17:s3      = 118.0567n
 + 17:temp    =  58.1573n  18:ckl     =  58.1549n  18:ckn     = 749.9998m
 + 18:m1      = 749.9999m  18:m2      = 749.9998m  18:m3      = 750.0000m
 + 18:s1      = 148.0537n  18:s2      = 749.9998m  18:s3      = 118.0567n
 + 18:temp    =  58.1573n  19:ckl     =  58.1549n  19:ckn     = 749.9998m
 + 19:m1      = 749.9999m  19:m2      = 749.9998m  19:m3      = 750.0000m
 + 19:s1      = 148.0537n  19:s2      = 749.9998m  19:s3      = 118.0567n
 + 19:temp    =  58.1573n  20:ckl     =  58.1549n  20:ckn     = 749.9998m
 + 20:m1      = 749.9999m  20:m2      = 749.9998m  20:m3      = 750.0000m
 + 20:s1      = 148.0537n  20:s2      = 749.9998m  20:s3      = 118.0567n
 + 20:temp    =  58.1573n  21:ckl     =  58.1549n  21:ckn     = 749.9998m
 + 21:m1      = 749.9999m  21:m2      = 749.9998m  21:m3      = 750.0000m
 + 21:s1      = 148.0537n  21:s2      = 749.9998m  21:s3      = 118.0567n
 + 21:temp    =  58.1573n  22:ckl     =  58.1549n  22:ckn     = 749.9998m
 + 22:m1      = 749.9999m  22:m2      = 749.9998m  22:m3      = 750.0000m
 + 22:s1      = 148.0537n  22:s2      = 749.9998m  22:s3      = 118.0567n
 + 22:temp    =  58.1573n  23:node_1  = 749.9999m  23:node_2  = 750.0000m
 + 23:node_3  =  29.0989n  23:s       = 749.9997m  24:node_1  = 749.9999m
 + 24:node_2  = 750.0000m  24:node_3  =  29.0989n  24:s       = 749.9997m
 + 25:node_1  = 749.9999m  25:node_2  = 750.0000m  25:node_3  =  28.8834n
 + 25:s       = 749.9997m  26:node_1  = 750.0000m  26:s       =  58.1547n


          ***** job concluded
1****** HSPICE -- J-2014.09-2 64-BIT (Oct 22 2014) win64 ******                 
 ******  
 lfsp

 ****** job statistics summary tnom=  25.000 temp=  35.000 ******

  ******  HSPICE Threads Information  ******

  Command Line Threads Count :     3
  Available CPU Count        :     4
  Actual Threads Count       :     3


  ******  Circuit Statistics  ******
  # nodes       =    1155 # elements   =     478
  # resistors   =       0 # capacitors =       0 # inductors   =       0
  # mutual_inds =       0 # vccs       =       0 # vcvs        =       0
  # cccs        =       0 # ccvs       =       0 # volt_srcs   =       6
  # curr_srcs   =       0 # diodes     =       0 # bjts        =       0
  # jfets       =       0 # mosfets    =     472 # U elements  =       0
  # T elements  =       0 # W elements =       0 # B elements  =       0
  # S elements  =       0 # P elements =       0 # va device   =       0
  # vector_srcs =       0 # N elements =       0


  ******  Runtime Statistics (seconds)  ******

  analysis           time    # points   tot. iter  conv.iter
  op point           0.02           1           4
  transient         26.33        1001       33945        6282 rev=       149
  readin             0.02
  errchk             0.11
  setup              0.01
  output             0.00


           peak memory used         55.66 megabytes
           total cpu time           26.50 seconds
           total elapsed time       26.55 seconds
           job started at     11:11:58 05/20/2022
           job ended   at     11:12:25 05/20/2022


  lic: Release hspice token(s) 
 lic: total license checkout elapse time:        0.05(s)
