$DATA1 SOURCE='HSPICE' VERSION='J-2014.09-2 64-BIT'
.TITLE 'edp'
 supply           tplh             tphl             avg_power_xinv_1
                  avg_power_xinv_2 avg_power_xinv_3 avg_power_xinv_4
                  temper           alter#          
    0.6900         2.403e-11        2.435e-11        1.210e-09      5.100e-09        1.771e-08        5.856e-08                    
    0.6890         2.410e-11        2.442e-11        1.208e-09      5.085e-09        1.766e-08        5.836e-08      
    0.6880         2.417e-11        2.449e-11        1.207e-09      5.071e-09        1.761e-08        5.816e-08      
    0.6870         2.424e-11        2.456e-11        1.205e-09      5.056e-09        1.757e-08        5.797e-08                    
    0.6860         2.431e-11        2.463e-11        1.204e-09      5.043e-09        1.752e-08        5.776e-08                   
    0.6850         2.439e-11        2.471e-11        1.202e-09      5.027e-09        1.747e-08        5.757e-08                     
    0.6840         2.446e-11        2.478e-11        1.201e-09      5.012e-09        1.742e-08        5.741e-08                    
    0.6830         2.453e-11        2.486e-11        1.200e-09      4.998e-09        1.737e-08        5.721e-08      
    0.6820         2.461e-11        2.493e-11        1.197e-09      4.983e-09        1.733e-08        5.703e-08
    0.6810         2.468e-11        2.501e-11        1.195e-09      4.968e-09        1.728e-08        5.685e-08                     
    0.6800         2.476e-11        2.508e-11        1.194e-09      4.954e-09        1.723e-08        5.669e-08                    
    0.6790         2.484e-11        2.516e-11        1.192e-09      4.940e-09        1.719e-08        5.652e-08                    
    0.6780         2.491e-11        2.524e-11        1.190e-09      4.925e-09        1.714e-08        5.636e-08                    
    0.6770         2.500e-11        2.532e-11        1.189e-09      4.910e-09        1.710e-08        5.619e-08                   
    0.6760         2.508e-11        2.540e-11        1.187e-09      4.894e-09        1.705e-08        5.603e-08                    
    0.6750         2.516e-11        2.548e-11        1.185e-09      4.879e-09        1.701e-08        5.587e-08                    
    0.6740         2.524e-11        2.556e-11        1.184e-09      4.864e-09        1.696e-08        5.572e-08      
    0.6730         2.532e-11        2.564e-11        1.182e-09      4.848e-09        1.692e-08        5.557e-08                    
    0.6720         2.538e-11        2.572e-11        1.180e-09      4.833e-09        1.688e-08        5.541e-08                    
    0.6710         2.545e-11        2.581e-11        1.179e-09      4.819e-09        1.684e-08        5.526e-08               
    0.6700         2.551e-11        2.589e-11        1.177e-09      4.804e-09        1.680e-08        5.512e-08               
